version 2
run FanetSecureGrayHole-0-20220617-20:38:17-24714
attr configname FanetSecureGrayHole
attr datetime 20220617-20:38:17
attr experiment FanetSecureGrayHole
attr inifile omnetpp.ini
attr iterationvars ""
attr iterationvarsf ""
attr measurement ""
attr network FanetSecureGrayHole
attr processid 24714
attr repetition 0
attr replication #0
attr resultdir results
attr runnumber 0
attr seedset 0
param *.host[0].numApps 1
param *.host[0].app[0].typename "\"UdpBasicApp\""
param *.host[0].app[0].startTime 11s
param *.host[0].app[0].destAddresses "\"host[1]\""
param *.host[0].app[0].destPort 5000
param *.host[0].app[0].messageLength 1000B
param *.host[0].app[0].sendInterval exponential(1s)
param *.host[0].app[0].packetName "\"UDPdata\""
param *.host[1].numApps 1
param *.host[1].app[0].typename "\"UdpSink\""
param *.host[1].app[0].localPort 5000
param **.wlan[*].bitrate 24Mbps
param *.configurator.addStaticRoutes false
param **.netmaskRoutes "\"\""
param **.arp.typename "\"GlobalArp\""
param *.host*.wlan[0].typename "\"AckingWirelessInterface\""
param *.host*.wlan[0].radio.transmitter.communicationRange 300m
param *.host*.wlan[0].radio.displayCommunicationRange false
param *.visualizer.osgVisualizer.typename "\"IntegratedOsgVisualizer\""
param *.visualizer.osgVisualizer.sceneVisualizer.clearColor "\"skyblue\""
param *.visualizer.osgVisualizer.sceneVisualizer.sceneImage "\"showcases/desert\""
param *.visualizer.osgVisualizer.sceneVisualizer.sceneImageSize 5000m
param *.visualizer.osgVisualizer.sceneVisualizer.axisLength 1000m
param *.visualizer.osgVisualizer.sceneVisualizer.sceneMinX -2000m
param *.visualizer.osgVisualizer.sceneVisualizer.sceneMinY -2000m
param *.visualizer.osgVisualizer.sceneVisualizer.sceneMinZ 0m
param *.visualizer.osgVisualizer.sceneVisualizer.sceneMaxX 3000m
param *.visualizer.osgVisualizer.sceneVisualizer.sceneMaxY 3000m
param *.visualizer.osgVisualizer.sceneVisualizer.sceneMaxZ 1000m
param *.visualizer.osgVisualizer.networkNodeVisualizer.displayModuleName false
param *.visualizer.*.mobilityVisualizer.displayMobility true
param *.visualizer.*.mobilityVisualizer.displayPositions true
param *.visualizer.*.mobilityVisualizer.displayOrientations true
param *.visualizer.*.mobilityVisualizer.displayVelocities true
param *.visualizer.*.mobilityVisualizer.displayMovementTrails true
param *.visualizer.*.mobilityVisualizer.animationSpeed 1
param *.visualizer.*.packetDropVisualizer.displayPacketDrops false
param *.visualizer.*.packetDropVisualizer.labelFormat "\"%n/reason: %r\""
param *.visualizer.*.packetDropVisualizer.fadeOutTime 10s
param **.constraintAreaMinX 0m
param **.constraintAreaMinY 0m
param **.constraintAreaMinZ 50m
param **.constraintAreaMaxX 1500m
param **.constraintAreaMaxY 1000m
param **.constraintAreaMaxZ 300m
param *.visualizer.*.mediumVisualizer.signalPropagationAnimationSpeed 500/3e8
param *.visualizer.*.mediumVisualizer.signalTransmissionAnimationSpeed 50000/3e8
param *.visualizer.*.mediumVisualizer.displaySignals false
param *.visualizer.*.mediumVisualizer.displayTransmissions false
param *.visualizer.*.mediumVisualizer.displayReceptions false
param *.visualizer.*.mediumVisualizer.transmissionPlacementPriority 10
param *.visualizer.*.mediumVisualizer.receptionPlacementPriority 10
param *.visualizer.*.mediumVisualizer.displaySignals false
param *.visualizer.*.mediumVisualizer.signalFadingDistance 50m
param *.visualizer.*.mediumVisualizer.signalRingSize 50m
param *.visualizer.osgVisualizer.mediumVisualizer.signalShape "\"both\""
param *.host[*].osgModel "\"3d/drone.ive.100.scale.0,0,90.rot\""
param *.host[*].mobility.typename "\"MassMobility\""
param *.host[*].mobility.changeInterval 1s
param *.host[*].mobility.initialMovementHeading "uniform(0deg, 360deg)"
param *.host[*].mobility.initialMovementElevation "uniform(-90deg, 90deg)"
param *.host[*].mobility.angleDelta uniform(-10deg,10deg)
param *.host[*].mobility.rotationAxisAngle uniform(-10deg,10deg)
param *.host[*].mobility.speed uniform(10mps,20mps)
param *.host[*].mobility.faceForward false
param *.attacker[*].mobility.typename "\"MassMobility\""
param *.attacker[*].mobility.changeInterval 1s
param *.attacker[*].mobility.initialMovementHeading "uniform(0deg, 360deg)"
param *.attacker[*].mobility.initialMovementElevation "uniform(-90deg, 90deg)"
param *.attacker[*].mobility.angleDelta uniform(-10deg,10deg)
param *.attacker[*].mobility.rotationAxisAngle uniform(-10deg,10deg)
param *.attacker[*].mobility.speed uniform(10mps,20mps)
param *.attacker[*].mobility.faceForward false
param *.attacker*.wlan[0].typename "\"AckingWirelessInterface\""
param *.attacker*.wlan[0].radio.transmitter.communicationRange 300m
param *.attacker*.wlan[0].radio.displayCommunicationRange false

vector 0 FanetSecureGrayHole.host[0].wlan[0].radio radioMode:vector ETV
attr interpolationmode sample-hold
attr source radioModeChanged
attr title "Radio mode, vector"
vector 1 FanetSecureGrayHole.host[1].wlan[0].radio radioMode:vector ETV
attr interpolationmode sample-hold
attr source radioModeChanged
attr title "Radio mode, vector"
vector 2 FanetSecureGrayHole.host[2].wlan[0].radio radioMode:vector ETV
attr interpolationmode sample-hold
attr source radioModeChanged
attr title "Radio mode, vector"
vector 3 FanetSecureGrayHole.host[3].wlan[0].radio radioMode:vector ETV
attr interpolationmode sample-hold
attr source radioModeChanged
attr title "Radio mode, vector"
vector 4 FanetSecureGrayHole.host[4].wlan[0].radio radioMode:vector ETV
attr interpolationmode sample-hold
attr source radioModeChanged
attr title "Radio mode, vector"
vector 5 FanetSecureGrayHole.host[5].wlan[0].radio radioMode:vector ETV
attr interpolationmode sample-hold
attr source radioModeChanged
attr title "Radio mode, vector"
vector 6 FanetSecureGrayHole.host[6].wlan[0].radio radioMode:vector ETV
attr interpolationmode sample-hold
attr source radioModeChanged
attr title "Radio mode, vector"
vector 7 FanetSecureGrayHole.host[7].wlan[0].radio radioMode:vector ETV
attr interpolationmode sample-hold
attr source radioModeChanged
attr title "Radio mode, vector"
vector 8 FanetSecureGrayHole.host[8].wlan[0].radio radioMode:vector ETV
attr interpolationmode sample-hold
attr source radioModeChanged
attr title "Radio mode, vector"
vector 9 FanetSecureGrayHole.host[9].wlan[0].radio radioMode:vector ETV
attr interpolationmode sample-hold
attr source radioModeChanged
attr title "Radio mode, vector"
vector 10 FanetSecureGrayHole.host[10].wlan[0].radio radioMode:vector ETV
attr interpolationmode sample-hold
attr source radioModeChanged
attr title "Radio mode, vector"
vector 11 FanetSecureGrayHole.host[11].wlan[0].radio radioMode:vector ETV
attr interpolationmode sample-hold
attr source radioModeChanged
attr title "Radio mode, vector"
vector 12 FanetSecureGrayHole.host[12].wlan[0].radio radioMode:vector ETV
attr interpolationmode sample-hold
attr source radioModeChanged
attr title "Radio mode, vector"
vector 13 FanetSecureGrayHole.host[13].wlan[0].radio radioMode:vector ETV
attr interpolationmode sample-hold
attr source radioModeChanged
attr title "Radio mode, vector"
vector 14 FanetSecureGrayHole.host[14].wlan[0].radio radioMode:vector ETV
attr interpolationmode sample-hold
attr source radioModeChanged
attr title "Radio mode, vector"
vector 15 FanetSecureGrayHole.host[15].wlan[0].radio radioMode:vector ETV
attr interpolationmode sample-hold
attr source radioModeChanged
attr title "Radio mode, vector"
vector 16 FanetSecureGrayHole.host[16].wlan[0].radio radioMode:vector ETV
attr interpolationmode sample-hold
attr source radioModeChanged
attr title "Radio mode, vector"
vector 17 FanetSecureGrayHole.host[17].wlan[0].radio radioMode:vector ETV
attr interpolationmode sample-hold
attr source radioModeChanged
attr title "Radio mode, vector"
vector 18 FanetSecureGrayHole.host[18].wlan[0].radio radioMode:vector ETV
attr interpolationmode sample-hold
attr source radioModeChanged
attr title "Radio mode, vector"
vector 19 FanetSecureGrayHole.host[19].wlan[0].radio radioMode:vector ETV
attr interpolationmode sample-hold
attr source radioModeChanged
attr title "Radio mode, vector"
vector 20 FanetSecureGrayHole.host[20].wlan[0].radio radioMode:vector ETV
attr interpolationmode sample-hold
attr source radioModeChanged
attr title "Radio mode, vector"
vector 21 FanetSecureGrayHole.host[21].wlan[0].radio radioMode:vector ETV
attr interpolationmode sample-hold
attr source radioModeChanged
attr title "Radio mode, vector"
vector 22 FanetSecureGrayHole.host[22].wlan[0].radio radioMode:vector ETV
attr interpolationmode sample-hold
attr source radioModeChanged
attr title "Radio mode, vector"
vector 23 FanetSecureGrayHole.host[23].wlan[0].radio radioMode:vector ETV
attr interpolationmode sample-hold
attr source radioModeChanged
attr title "Radio mode, vector"
vector 24 FanetSecureGrayHole.host[24].wlan[0].radio radioMode:vector ETV
attr interpolationmode sample-hold
attr source radioModeChanged
attr title "Radio mode, vector"
vector 25 FanetSecureGrayHole.host[0].wlan[0].radio receptionState:vector ETV
attr interpolationmode sample-hold
attr source receptionStateChanged
attr title "Radio reception state, vector"
vector 26 FanetSecureGrayHole.host[0].wlan[0].radio transmissionState:vector ETV
attr interpolationmode sample-hold
attr source transmissionStateChanged
attr title "Radio transmission state, vector"
vector 27 FanetSecureGrayHole.host[1].wlan[0].radio receptionState:vector ETV
attr interpolationmode sample-hold
attr source receptionStateChanged
attr title "Radio reception state, vector"
vector 28 FanetSecureGrayHole.host[1].wlan[0].radio transmissionState:vector ETV
attr interpolationmode sample-hold
attr source transmissionStateChanged
attr title "Radio transmission state, vector"
vector 29 FanetSecureGrayHole.host[2].wlan[0].radio receptionState:vector ETV
attr interpolationmode sample-hold
attr source receptionStateChanged
attr title "Radio reception state, vector"
vector 30 FanetSecureGrayHole.host[2].wlan[0].radio transmissionState:vector ETV
attr interpolationmode sample-hold
attr source transmissionStateChanged
attr title "Radio transmission state, vector"
vector 31 FanetSecureGrayHole.host[3].wlan[0].radio receptionState:vector ETV
attr interpolationmode sample-hold
attr source receptionStateChanged
attr title "Radio reception state, vector"
vector 32 FanetSecureGrayHole.host[3].wlan[0].radio transmissionState:vector ETV
attr interpolationmode sample-hold
attr source transmissionStateChanged
attr title "Radio transmission state, vector"
vector 33 FanetSecureGrayHole.host[4].wlan[0].radio receptionState:vector ETV
attr interpolationmode sample-hold
attr source receptionStateChanged
attr title "Radio reception state, vector"
vector 34 FanetSecureGrayHole.host[4].wlan[0].radio transmissionState:vector ETV
attr interpolationmode sample-hold
attr source transmissionStateChanged
attr title "Radio transmission state, vector"
vector 35 FanetSecureGrayHole.host[5].wlan[0].radio receptionState:vector ETV
attr interpolationmode sample-hold
attr source receptionStateChanged
attr title "Radio reception state, vector"
vector 36 FanetSecureGrayHole.host[5].wlan[0].radio transmissionState:vector ETV
attr interpolationmode sample-hold
attr source transmissionStateChanged
attr title "Radio transmission state, vector"
vector 37 FanetSecureGrayHole.host[6].wlan[0].radio receptionState:vector ETV
attr interpolationmode sample-hold
attr source receptionStateChanged
attr title "Radio reception state, vector"
vector 38 FanetSecureGrayHole.host[6].wlan[0].radio transmissionState:vector ETV
attr interpolationmode sample-hold
attr source transmissionStateChanged
attr title "Radio transmission state, vector"
vector 39 FanetSecureGrayHole.host[7].wlan[0].radio receptionState:vector ETV
attr interpolationmode sample-hold
attr source receptionStateChanged
attr title "Radio reception state, vector"
vector 40 FanetSecureGrayHole.host[7].wlan[0].radio transmissionState:vector ETV
attr interpolationmode sample-hold
attr source transmissionStateChanged
attr title "Radio transmission state, vector"
vector 41 FanetSecureGrayHole.host[8].wlan[0].radio receptionState:vector ETV
attr interpolationmode sample-hold
attr source receptionStateChanged
attr title "Radio reception state, vector"
vector 42 FanetSecureGrayHole.host[8].wlan[0].radio transmissionState:vector ETV
attr interpolationmode sample-hold
attr source transmissionStateChanged
attr title "Radio transmission state, vector"
vector 43 FanetSecureGrayHole.host[9].wlan[0].radio receptionState:vector ETV
attr interpolationmode sample-hold
attr source receptionStateChanged
attr title "Radio reception state, vector"
vector 44 FanetSecureGrayHole.host[9].wlan[0].radio transmissionState:vector ETV
attr interpolationmode sample-hold
attr source transmissionStateChanged
attr title "Radio transmission state, vector"
vector 45 FanetSecureGrayHole.host[10].wlan[0].radio receptionState:vector ETV
attr interpolationmode sample-hold
attr source receptionStateChanged
attr title "Radio reception state, vector"
vector 46 FanetSecureGrayHole.host[10].wlan[0].radio transmissionState:vector ETV
attr interpolationmode sample-hold
attr source transmissionStateChanged
attr title "Radio transmission state, vector"
vector 47 FanetSecureGrayHole.host[11].wlan[0].radio receptionState:vector ETV
attr interpolationmode sample-hold
attr source receptionStateChanged
attr title "Radio reception state, vector"
vector 48 FanetSecureGrayHole.host[11].wlan[0].radio transmissionState:vector ETV
attr interpolationmode sample-hold
attr source transmissionStateChanged
attr title "Radio transmission state, vector"
vector 49 FanetSecureGrayHole.host[12].wlan[0].radio receptionState:vector ETV
attr interpolationmode sample-hold
attr source receptionStateChanged
attr title "Radio reception state, vector"
vector 50 FanetSecureGrayHole.host[12].wlan[0].radio transmissionState:vector ETV
attr interpolationmode sample-hold
attr source transmissionStateChanged
attr title "Radio transmission state, vector"
vector 51 FanetSecureGrayHole.host[13].wlan[0].radio receptionState:vector ETV
attr interpolationmode sample-hold
attr source receptionStateChanged
attr title "Radio reception state, vector"
vector 52 FanetSecureGrayHole.host[13].wlan[0].radio transmissionState:vector ETV
attr interpolationmode sample-hold
attr source transmissionStateChanged
attr title "Radio transmission state, vector"
vector 53 FanetSecureGrayHole.host[14].wlan[0].radio receptionState:vector ETV
attr interpolationmode sample-hold
attr source receptionStateChanged
attr title "Radio reception state, vector"
vector 54 FanetSecureGrayHole.host[14].wlan[0].radio transmissionState:vector ETV
attr interpolationmode sample-hold
attr source transmissionStateChanged
attr title "Radio transmission state, vector"
vector 55 FanetSecureGrayHole.host[15].wlan[0].radio receptionState:vector ETV
attr interpolationmode sample-hold
attr source receptionStateChanged
attr title "Radio reception state, vector"
vector 56 FanetSecureGrayHole.host[15].wlan[0].radio transmissionState:vector ETV
attr interpolationmode sample-hold
attr source transmissionStateChanged
attr title "Radio transmission state, vector"
vector 57 FanetSecureGrayHole.host[16].wlan[0].radio receptionState:vector ETV
attr interpolationmode sample-hold
attr source receptionStateChanged
attr title "Radio reception state, vector"
vector 58 FanetSecureGrayHole.host[16].wlan[0].radio transmissionState:vector ETV
attr interpolationmode sample-hold
attr source transmissionStateChanged
attr title "Radio transmission state, vector"
vector 59 FanetSecureGrayHole.host[17].wlan[0].radio receptionState:vector ETV
attr interpolationmode sample-hold
attr source receptionStateChanged
attr title "Radio reception state, vector"
vector 60 FanetSecureGrayHole.host[17].wlan[0].radio transmissionState:vector ETV
attr interpolationmode sample-hold
attr source transmissionStateChanged
attr title "Radio transmission state, vector"
vector 61 FanetSecureGrayHole.host[18].wlan[0].radio receptionState:vector ETV
attr interpolationmode sample-hold
attr source receptionStateChanged
attr title "Radio reception state, vector"
vector 62 FanetSecureGrayHole.host[18].wlan[0].radio transmissionState:vector ETV
attr interpolationmode sample-hold
attr source transmissionStateChanged
attr title "Radio transmission state, vector"
vector 63 FanetSecureGrayHole.host[19].wlan[0].radio receptionState:vector ETV
attr interpolationmode sample-hold
attr source receptionStateChanged
attr title "Radio reception state, vector"
vector 64 FanetSecureGrayHole.host[19].wlan[0].radio transmissionState:vector ETV
attr interpolationmode sample-hold
attr source transmissionStateChanged
attr title "Radio transmission state, vector"
vector 65 FanetSecureGrayHole.host[20].wlan[0].radio receptionState:vector ETV
attr interpolationmode sample-hold
attr source receptionStateChanged
attr title "Radio reception state, vector"
vector 66 FanetSecureGrayHole.host[20].wlan[0].radio transmissionState:vector ETV
attr interpolationmode sample-hold
attr source transmissionStateChanged
attr title "Radio transmission state, vector"
vector 67 FanetSecureGrayHole.host[21].wlan[0].radio receptionState:vector ETV
attr interpolationmode sample-hold
attr source receptionStateChanged
attr title "Radio reception state, vector"
vector 68 FanetSecureGrayHole.host[21].wlan[0].radio transmissionState:vector ETV
attr interpolationmode sample-hold
attr source transmissionStateChanged
attr title "Radio transmission state, vector"
vector 69 FanetSecureGrayHole.host[22].wlan[0].radio receptionState:vector ETV
attr interpolationmode sample-hold
attr source receptionStateChanged
attr title "Radio reception state, vector"
vector 70 FanetSecureGrayHole.host[22].wlan[0].radio transmissionState:vector ETV
attr interpolationmode sample-hold
attr source transmissionStateChanged
attr title "Radio transmission state, vector"
vector 71 FanetSecureGrayHole.host[23].wlan[0].radio receptionState:vector ETV
attr interpolationmode sample-hold
attr source receptionStateChanged
attr title "Radio reception state, vector"
vector 72 FanetSecureGrayHole.host[23].wlan[0].radio transmissionState:vector ETV
attr interpolationmode sample-hold
attr source transmissionStateChanged
attr title "Radio transmission state, vector"
vector 73 FanetSecureGrayHole.host[24].wlan[0].radio receptionState:vector ETV
attr interpolationmode sample-hold
attr source receptionStateChanged
attr title "Radio reception state, vector"
vector 74 FanetSecureGrayHole.host[24].wlan[0].radio transmissionState:vector ETV
attr interpolationmode sample-hold
attr source transmissionStateChanged
attr title "Radio transmission state, vector"
vector 75 FanetSecureGrayHole.host[15].wlan[0].mac rcvdPkFromHl:vector(packetBytes) ETV
attr interpolationmode none
attr source packetReceivedFromUpper
attr title "packets received from higher layer, vector(packetBytes)"
vector 76 FanetSecureGrayHole.host[15].wlan[0].mac.queue packetPushed:vector(packetBytes) ETV
attr interpolationmode none
attr title "packet pushed, vector(packetBytes)"
vector 77 FanetSecureGrayHole.host[15].wlan[0].mac.queue queueLength:vector ETV
attr interpolationmode sample-hold
attr source "count(packetPushed) - count(packetPopped) - count(packetRemoved) - count(packetDropped)"
attr title "queue length, vector"
vector 78 FanetSecureGrayHole.host[15].wlan[0].mac.queue packetPopped:vector(packetBytes) ETV
attr interpolationmode none
attr title "packet popped, vector(packetBytes)"
vector 79 FanetSecureGrayHole.host[15].wlan[0].mac.queue queueingTime:vector ETV
attr interpolationmode none
attr source queueingTime(packetPopped)
attr title "queueing times, vector"
attr unit s
vector 80 FanetSecureGrayHole.host[15].wlan[0].mac sentDownPk:vector(packetBytes) ETV
attr interpolationmode none
attr source packetSentToLower
attr title "packets sent to lower layer, vector(packetBytes)"
vector 81 FanetSecureGrayHole.host[12].wlan[0].mac rcvdPkFromLl:vector(packetBytes) ETV
attr interpolationmode none
attr source packetReceivedFromLower
attr title "packets received from lower layer, vector(packetBytes)"
vector 82 FanetSecureGrayHole.host[12].wlan[0].mac passedUpPk:vector(packetBytes) ETV
attr interpolationmode none
attr source packetSentToUpper
attr title "packets passed to higher layer, vector(packetBytes)"
vector 83 FanetSecureGrayHole.host[14].wlan[0].mac rcvdPkFromLl:vector(packetBytes) ETV
attr interpolationmode none
attr source packetReceivedFromLower
attr title "packets received from lower layer, vector(packetBytes)"
vector 84 FanetSecureGrayHole.host[14].wlan[0].mac passedUpPk:vector(packetBytes) ETV
attr interpolationmode none
attr source packetSentToUpper
attr title "packets passed to higher layer, vector(packetBytes)"
vector 85 FanetSecureGrayHole.host[11].wlan[0].mac rcvdPkFromLl:vector(packetBytes) ETV
attr interpolationmode none
attr source packetReceivedFromLower
attr title "packets received from lower layer, vector(packetBytes)"
vector 86 FanetSecureGrayHole.host[11].wlan[0].mac passedUpPk:vector(packetBytes) ETV
attr interpolationmode none
attr source packetSentToUpper
attr title "packets passed to higher layer, vector(packetBytes)"
vector 87 FanetSecureGrayHole.host[17].wlan[0].mac rcvdPkFromHl:vector(packetBytes) ETV
attr interpolationmode none
attr source packetReceivedFromUpper
attr title "packets received from higher layer, vector(packetBytes)"
vector 88 FanetSecureGrayHole.host[17].wlan[0].mac.queue packetPushed:vector(packetBytes) ETV
attr interpolationmode none
attr title "packet pushed, vector(packetBytes)"
vector 89 FanetSecureGrayHole.host[17].wlan[0].mac.queue queueLength:vector ETV
attr interpolationmode sample-hold
attr source "count(packetPushed) - count(packetPopped) - count(packetRemoved) - count(packetDropped)"
attr title "queue length, vector"
vector 90 FanetSecureGrayHole.host[17].wlan[0].mac.queue packetPopped:vector(packetBytes) ETV
attr interpolationmode none
attr title "packet popped, vector(packetBytes)"
vector 91 FanetSecureGrayHole.host[17].wlan[0].mac.queue queueingTime:vector ETV
attr interpolationmode none
attr source queueingTime(packetPopped)
attr title "queueing times, vector"
attr unit s
vector 92 FanetSecureGrayHole.host[17].wlan[0].mac sentDownPk:vector(packetBytes) ETV
attr interpolationmode none
attr source packetSentToLower
attr title "packets sent to lower layer, vector(packetBytes)"
vector 93 FanetSecureGrayHole.host[4].wlan[0].mac rcvdPkFromLl:vector(packetBytes) ETV
attr interpolationmode none
attr source packetReceivedFromLower
attr title "packets received from lower layer, vector(packetBytes)"
vector 94 FanetSecureGrayHole.host[4].wlan[0].mac passedUpPk:vector(packetBytes) ETV
attr interpolationmode none
attr source packetSentToUpper
attr title "packets passed to higher layer, vector(packetBytes)"
vector 95 FanetSecureGrayHole.host[16].wlan[0].mac rcvdPkFromLl:vector(packetBytes) ETV
attr interpolationmode none
attr source packetReceivedFromLower
attr title "packets received from lower layer, vector(packetBytes)"
vector 96 FanetSecureGrayHole.host[16].wlan[0].mac passedUpPk:vector(packetBytes) ETV
attr interpolationmode none
attr source packetSentToUpper
attr title "packets passed to higher layer, vector(packetBytes)"
vector 97 FanetSecureGrayHole.host[3].wlan[0].mac rcvdPkFromLl:vector(packetBytes) ETV
attr interpolationmode none
attr source packetReceivedFromLower
attr title "packets received from lower layer, vector(packetBytes)"
vector 98 FanetSecureGrayHole.host[3].wlan[0].mac passedUpPk:vector(packetBytes) ETV
attr interpolationmode none
attr source packetSentToUpper
attr title "packets passed to higher layer, vector(packetBytes)"
vector 99 FanetSecureGrayHole.host[20].wlan[0].mac rcvdPkFromLl:vector(packetBytes) ETV
attr interpolationmode none
attr source packetReceivedFromLower
attr title "packets received from lower layer, vector(packetBytes)"
vector 100 FanetSecureGrayHole.host[20].wlan[0].mac passedUpPk:vector(packetBytes) ETV
attr interpolationmode none
attr source packetSentToUpper
attr title "packets passed to higher layer, vector(packetBytes)"
vector 101 FanetSecureGrayHole.host[0].wlan[0].mac rcvdPkFromLl:vector(packetBytes) ETV
attr interpolationmode none
attr source packetReceivedFromLower
attr title "packets received from lower layer, vector(packetBytes)"
vector 102 FanetSecureGrayHole.host[0].wlan[0].mac passedUpPk:vector(packetBytes) ETV
attr interpolationmode none
attr source packetSentToUpper
attr title "packets passed to higher layer, vector(packetBytes)"
vector 103 FanetSecureGrayHole.host[24].wlan[0].mac rcvdPkFromLl:vector(packetBytes) ETV
attr interpolationmode none
attr source packetReceivedFromLower
attr title "packets received from lower layer, vector(packetBytes)"
vector 104 FanetSecureGrayHole.host[24].wlan[0].mac passedUpPk:vector(packetBytes) ETV
attr interpolationmode none
attr source packetSentToUpper
attr title "packets passed to higher layer, vector(packetBytes)"
vector 105 FanetSecureGrayHole.host[13].wlan[0].mac rcvdPkFromHl:vector(packetBytes) ETV
attr interpolationmode none
attr source packetReceivedFromUpper
attr title "packets received from higher layer, vector(packetBytes)"
vector 106 FanetSecureGrayHole.host[13].wlan[0].mac.queue packetPushed:vector(packetBytes) ETV
attr interpolationmode none
attr title "packet pushed, vector(packetBytes)"
vector 107 FanetSecureGrayHole.host[13].wlan[0].mac.queue queueLength:vector ETV
attr interpolationmode sample-hold
attr source "count(packetPushed) - count(packetPopped) - count(packetRemoved) - count(packetDropped)"
attr title "queue length, vector"
vector 108 FanetSecureGrayHole.host[13].wlan[0].mac.queue packetPopped:vector(packetBytes) ETV
attr interpolationmode none
attr title "packet popped, vector(packetBytes)"
vector 109 FanetSecureGrayHole.host[13].wlan[0].mac.queue queueingTime:vector ETV
attr interpolationmode none
attr source queueingTime(packetPopped)
attr title "queueing times, vector"
attr unit s
vector 110 FanetSecureGrayHole.host[13].wlan[0].mac sentDownPk:vector(packetBytes) ETV
attr interpolationmode none
attr source packetSentToLower
attr title "packets sent to lower layer, vector(packetBytes)"
vector 111 FanetSecureGrayHole.host[1].wlan[0].mac rcvdPkFromLl:vector(packetBytes) ETV
attr interpolationmode none
attr source packetReceivedFromLower
attr title "packets received from lower layer, vector(packetBytes)"
vector 112 FanetSecureGrayHole.host[1].wlan[0].mac passedUpPk:vector(packetBytes) ETV
attr interpolationmode none
attr source packetSentToUpper
attr title "packets passed to higher layer, vector(packetBytes)"
vector 113 FanetSecureGrayHole.host[2].wlan[0].mac rcvdPkFromLl:vector(packetBytes) ETV
attr interpolationmode none
attr source packetReceivedFromLower
attr title "packets received from lower layer, vector(packetBytes)"
vector 114 FanetSecureGrayHole.host[2].wlan[0].mac passedUpPk:vector(packetBytes) ETV
attr interpolationmode none
attr source packetSentToUpper
attr title "packets passed to higher layer, vector(packetBytes)"
vector 115 FanetSecureGrayHole.host[18].wlan[0].mac rcvdPkFromHl:vector(packetBytes) ETV
attr interpolationmode none
attr source packetReceivedFromUpper
attr title "packets received from higher layer, vector(packetBytes)"
vector 116 FanetSecureGrayHole.host[18].wlan[0].mac.queue packetPushed:vector(packetBytes) ETV
attr interpolationmode none
attr title "packet pushed, vector(packetBytes)"
vector 117 FanetSecureGrayHole.host[18].wlan[0].mac.queue queueLength:vector ETV
attr interpolationmode sample-hold
attr source "count(packetPushed) - count(packetPopped) - count(packetRemoved) - count(packetDropped)"
attr title "queue length, vector"
vector 118 FanetSecureGrayHole.host[18].wlan[0].mac.queue packetPopped:vector(packetBytes) ETV
attr interpolationmode none
attr title "packet popped, vector(packetBytes)"
vector 119 FanetSecureGrayHole.host[18].wlan[0].mac.queue queueingTime:vector ETV
attr interpolationmode none
attr source queueingTime(packetPopped)
attr title "queueing times, vector"
attr unit s
vector 120 FanetSecureGrayHole.host[18].wlan[0].mac sentDownPk:vector(packetBytes) ETV
attr interpolationmode none
attr source packetSentToLower
attr title "packets sent to lower layer, vector(packetBytes)"
vector 121 FanetSecureGrayHole.host[11].wlan[0].mac rcvdPkFromHl:vector(packetBytes) ETV
attr interpolationmode none
attr source packetReceivedFromUpper
attr title "packets received from higher layer, vector(packetBytes)"
vector 122 FanetSecureGrayHole.host[11].wlan[0].mac.queue packetPushed:vector(packetBytes) ETV
attr interpolationmode none
attr title "packet pushed, vector(packetBytes)"
vector 123 FanetSecureGrayHole.host[11].wlan[0].mac.queue queueLength:vector ETV
attr interpolationmode sample-hold
attr source "count(packetPushed) - count(packetPopped) - count(packetRemoved) - count(packetDropped)"
attr title "queue length, vector"
vector 124 FanetSecureGrayHole.host[11].wlan[0].mac.queue packetPopped:vector(packetBytes) ETV
attr interpolationmode none
attr title "packet popped, vector(packetBytes)"
vector 125 FanetSecureGrayHole.host[11].wlan[0].mac.queue queueingTime:vector ETV
attr interpolationmode none
attr source queueingTime(packetPopped)
attr title "queueing times, vector"
attr unit s
vector 126 FanetSecureGrayHole.host[11].wlan[0].mac sentDownPk:vector(packetBytes) ETV
attr interpolationmode none
attr source packetSentToLower
attr title "packets sent to lower layer, vector(packetBytes)"
vector 127 FanetSecureGrayHole.host[8].wlan[0].mac rcvdPkFromLl:vector(packetBytes) ETV
attr interpolationmode none
attr source packetReceivedFromLower
attr title "packets received from lower layer, vector(packetBytes)"
vector 128 FanetSecureGrayHole.host[8].wlan[0].mac passedUpPk:vector(packetBytes) ETV
attr interpolationmode none
attr source packetSentToUpper
attr title "packets passed to higher layer, vector(packetBytes)"
vector 129 FanetSecureGrayHole.host[15].wlan[0].mac rcvdPkFromLl:vector(packetBytes) ETV
attr interpolationmode none
attr source packetReceivedFromLower
attr title "packets received from lower layer, vector(packetBytes)"
vector 130 FanetSecureGrayHole.host[15].wlan[0].mac passedUpPk:vector(packetBytes) ETV
attr interpolationmode none
attr source packetSentToUpper
attr title "packets passed to higher layer, vector(packetBytes)"
vector 131 FanetSecureGrayHole.host[5].wlan[0].mac rcvdPkFromLl:vector(packetBytes) ETV
attr interpolationmode none
attr source packetReceivedFromLower
attr title "packets received from lower layer, vector(packetBytes)"
vector 132 FanetSecureGrayHole.host[5].wlan[0].mac passedUpPk:vector(packetBytes) ETV
attr interpolationmode none
attr source packetSentToUpper
attr title "packets passed to higher layer, vector(packetBytes)"
vector 133 FanetSecureGrayHole.host[8].wlan[0].mac rcvdPkFromHl:vector(packetBytes) ETV
attr interpolationmode none
attr source packetReceivedFromUpper
attr title "packets received from higher layer, vector(packetBytes)"
vector 134 FanetSecureGrayHole.host[8].wlan[0].mac.queue packetPushed:vector(packetBytes) ETV
attr interpolationmode none
attr title "packet pushed, vector(packetBytes)"
vector 135 FanetSecureGrayHole.host[8].wlan[0].mac.queue queueLength:vector ETV
attr interpolationmode sample-hold
attr source "count(packetPushed) - count(packetPopped) - count(packetRemoved) - count(packetDropped)"
attr title "queue length, vector"
vector 136 FanetSecureGrayHole.host[8].wlan[0].mac.queue packetPopped:vector(packetBytes) ETV
attr interpolationmode none
attr title "packet popped, vector(packetBytes)"
vector 137 FanetSecureGrayHole.host[8].wlan[0].mac.queue queueingTime:vector ETV
attr interpolationmode none
attr source queueingTime(packetPopped)
attr title "queueing times, vector"
attr unit s
vector 138 FanetSecureGrayHole.host[8].wlan[0].mac sentDownPk:vector(packetBytes) ETV
attr interpolationmode none
attr source packetSentToLower
attr title "packets sent to lower layer, vector(packetBytes)"
vector 139 FanetSecureGrayHole.host[12].wlan[0].mac rcvdPkFromHl:vector(packetBytes) ETV
attr interpolationmode none
attr source packetReceivedFromUpper
attr title "packets received from higher layer, vector(packetBytes)"
vector 140 FanetSecureGrayHole.host[12].wlan[0].mac.queue packetPushed:vector(packetBytes) ETV
attr interpolationmode none
attr title "packet pushed, vector(packetBytes)"
vector 141 FanetSecureGrayHole.host[12].wlan[0].mac.queue queueLength:vector ETV
attr interpolationmode sample-hold
attr source "count(packetPushed) - count(packetPopped) - count(packetRemoved) - count(packetDropped)"
attr title "queue length, vector"
vector 142 FanetSecureGrayHole.host[12].wlan[0].mac.queue packetPopped:vector(packetBytes) ETV
attr interpolationmode none
attr title "packet popped, vector(packetBytes)"
vector 143 FanetSecureGrayHole.host[12].wlan[0].mac.queue queueingTime:vector ETV
attr interpolationmode none
attr source queueingTime(packetPopped)
attr title "queueing times, vector"
attr unit s
vector 144 FanetSecureGrayHole.host[12].wlan[0].mac sentDownPk:vector(packetBytes) ETV
attr interpolationmode none
attr source packetSentToLower
attr title "packets sent to lower layer, vector(packetBytes)"
vector 145 FanetSecureGrayHole.host[6].wlan[0].mac rcvdPkFromLl:vector(packetBytes) ETV
attr interpolationmode none
attr source packetReceivedFromLower
attr title "packets received from lower layer, vector(packetBytes)"
vector 146 FanetSecureGrayHole.host[6].wlan[0].mac passedUpPk:vector(packetBytes) ETV
attr interpolationmode none
attr source packetSentToUpper
attr title "packets passed to higher layer, vector(packetBytes)"
vector 147 FanetSecureGrayHole.host[7].wlan[0].mac rcvdPkFromLl:vector(packetBytes) ETV
attr interpolationmode none
attr source packetReceivedFromLower
attr title "packets received from lower layer, vector(packetBytes)"
vector 148 FanetSecureGrayHole.host[7].wlan[0].mac passedUpPk:vector(packetBytes) ETV
attr interpolationmode none
attr source packetSentToUpper
attr title "packets passed to higher layer, vector(packetBytes)"
vector 149 FanetSecureGrayHole.host[19].wlan[0].mac rcvdPkFromHl:vector(packetBytes) ETV
attr interpolationmode none
attr source packetReceivedFromUpper
attr title "packets received from higher layer, vector(packetBytes)"
vector 150 FanetSecureGrayHole.host[19].wlan[0].mac.queue packetPushed:vector(packetBytes) ETV
attr interpolationmode none
attr title "packet pushed, vector(packetBytes)"
vector 151 FanetSecureGrayHole.host[19].wlan[0].mac.queue queueLength:vector ETV
attr interpolationmode sample-hold
attr source "count(packetPushed) - count(packetPopped) - count(packetRemoved) - count(packetDropped)"
attr title "queue length, vector"
vector 152 FanetSecureGrayHole.host[19].wlan[0].mac.queue packetPopped:vector(packetBytes) ETV
attr interpolationmode none
attr title "packet popped, vector(packetBytes)"
vector 153 FanetSecureGrayHole.host[19].wlan[0].mac.queue queueingTime:vector ETV
attr interpolationmode none
attr source queueingTime(packetPopped)
attr title "queueing times, vector"
attr unit s
vector 154 FanetSecureGrayHole.host[19].wlan[0].mac sentDownPk:vector(packetBytes) ETV
attr interpolationmode none
attr source packetSentToLower
attr title "packets sent to lower layer, vector(packetBytes)"
vector 155 FanetSecureGrayHole.host[22].wlan[0].mac rcvdPkFromLl:vector(packetBytes) ETV
attr interpolationmode none
attr source packetReceivedFromLower
attr title "packets received from lower layer, vector(packetBytes)"
vector 156 FanetSecureGrayHole.host[22].wlan[0].mac passedUpPk:vector(packetBytes) ETV
attr interpolationmode none
attr source packetSentToUpper
attr title "packets passed to higher layer, vector(packetBytes)"
vector 157 FanetSecureGrayHole.host[9].wlan[0].mac rcvdPkFromLl:vector(packetBytes) ETV
attr interpolationmode none
attr source packetReceivedFromLower
attr title "packets received from lower layer, vector(packetBytes)"
vector 158 FanetSecureGrayHole.host[9].wlan[0].mac passedUpPk:vector(packetBytes) ETV
attr interpolationmode none
attr source packetSentToUpper
attr title "packets passed to higher layer, vector(packetBytes)"
vector 159 FanetSecureGrayHole.host[23].wlan[0].mac rcvdPkFromHl:vector(packetBytes) ETV
attr interpolationmode none
attr source packetReceivedFromUpper
attr title "packets received from higher layer, vector(packetBytes)"
vector 160 FanetSecureGrayHole.host[23].wlan[0].mac.queue packetPushed:vector(packetBytes) ETV
attr interpolationmode none
attr title "packet pushed, vector(packetBytes)"
vector 161 FanetSecureGrayHole.host[23].wlan[0].mac.queue queueLength:vector ETV
attr interpolationmode sample-hold
attr source "count(packetPushed) - count(packetPopped) - count(packetRemoved) - count(packetDropped)"
attr title "queue length, vector"
vector 162 FanetSecureGrayHole.host[23].wlan[0].mac.queue packetPopped:vector(packetBytes) ETV
attr interpolationmode none
attr title "packet popped, vector(packetBytes)"
vector 163 FanetSecureGrayHole.host[23].wlan[0].mac.queue queueingTime:vector ETV
attr interpolationmode none
attr source queueingTime(packetPopped)
attr title "queueing times, vector"
attr unit s
vector 164 FanetSecureGrayHole.host[23].wlan[0].mac sentDownPk:vector(packetBytes) ETV
attr interpolationmode none
attr source packetSentToLower
attr title "packets sent to lower layer, vector(packetBytes)"
vector 165 FanetSecureGrayHole.host[10].wlan[0].mac rcvdPkFromLl:vector(packetBytes) ETV
attr interpolationmode none
attr source packetReceivedFromLower
attr title "packets received from lower layer, vector(packetBytes)"
vector 166 FanetSecureGrayHole.host[10].wlan[0].mac passedUpPk:vector(packetBytes) ETV
attr interpolationmode none
attr source packetSentToUpper
attr title "packets passed to higher layer, vector(packetBytes)"
vector 167 FanetSecureGrayHole.host[22].wlan[0].mac rcvdPkFromHl:vector(packetBytes) ETV
attr interpolationmode none
attr source packetReceivedFromUpper
attr title "packets received from higher layer, vector(packetBytes)"
vector 168 FanetSecureGrayHole.host[22].wlan[0].mac.queue packetPushed:vector(packetBytes) ETV
attr interpolationmode none
attr title "packet pushed, vector(packetBytes)"
vector 169 FanetSecureGrayHole.host[22].wlan[0].mac.queue queueLength:vector ETV
attr interpolationmode sample-hold
attr source "count(packetPushed) - count(packetPopped) - count(packetRemoved) - count(packetDropped)"
attr title "queue length, vector"
vector 170 FanetSecureGrayHole.host[22].wlan[0].mac.queue packetPopped:vector(packetBytes) ETV
attr interpolationmode none
attr title "packet popped, vector(packetBytes)"
vector 171 FanetSecureGrayHole.host[22].wlan[0].mac.queue queueingTime:vector ETV
attr interpolationmode none
attr source queueingTime(packetPopped)
attr title "queueing times, vector"
attr unit s
vector 172 FanetSecureGrayHole.host[22].wlan[0].mac sentDownPk:vector(packetBytes) ETV
attr interpolationmode none
attr source packetSentToLower
attr title "packets sent to lower layer, vector(packetBytes)"
vector 173 FanetSecureGrayHole.host[19].wlan[0].mac rcvdPkFromLl:vector(packetBytes) ETV
attr interpolationmode none
attr source packetReceivedFromLower
attr title "packets received from lower layer, vector(packetBytes)"
vector 174 FanetSecureGrayHole.host[19].wlan[0].mac passedUpPk:vector(packetBytes) ETV
attr interpolationmode none
attr source packetSentToUpper
attr title "packets passed to higher layer, vector(packetBytes)"
vector 175 FanetSecureGrayHole.host[6].wlan[0].mac rcvdPkFromHl:vector(packetBytes) ETV
attr interpolationmode none
attr source packetReceivedFromUpper
attr title "packets received from higher layer, vector(packetBytes)"
vector 176 FanetSecureGrayHole.host[6].wlan[0].mac.queue packetPushed:vector(packetBytes) ETV
attr interpolationmode none
attr title "packet pushed, vector(packetBytes)"
vector 177 FanetSecureGrayHole.host[6].wlan[0].mac.queue queueLength:vector ETV
attr interpolationmode sample-hold
attr source "count(packetPushed) - count(packetPopped) - count(packetRemoved) - count(packetDropped)"
attr title "queue length, vector"
vector 178 FanetSecureGrayHole.host[6].wlan[0].mac.queue packetPopped:vector(packetBytes) ETV
attr interpolationmode none
attr title "packet popped, vector(packetBytes)"
vector 179 FanetSecureGrayHole.host[6].wlan[0].mac.queue queueingTime:vector ETV
attr interpolationmode none
attr source queueingTime(packetPopped)
attr title "queueing times, vector"
attr unit s
vector 180 FanetSecureGrayHole.host[6].wlan[0].mac sentDownPk:vector(packetBytes) ETV
attr interpolationmode none
attr source packetSentToLower
attr title "packets sent to lower layer, vector(packetBytes)"
vector 181 FanetSecureGrayHole.host[0].wlan[0].mac rcvdPkFromHl:vector(packetBytes) ETV
attr interpolationmode none
attr source packetReceivedFromUpper
attr title "packets received from higher layer, vector(packetBytes)"
vector 182 FanetSecureGrayHole.host[0].wlan[0].mac.queue packetPushed:vector(packetBytes) ETV
attr interpolationmode none
attr title "packet pushed, vector(packetBytes)"
vector 183 FanetSecureGrayHole.host[0].wlan[0].mac.queue queueLength:vector ETV
attr interpolationmode sample-hold
attr source "count(packetPushed) - count(packetPopped) - count(packetRemoved) - count(packetDropped)"
attr title "queue length, vector"
vector 184 FanetSecureGrayHole.host[0].wlan[0].mac.queue packetPopped:vector(packetBytes) ETV
attr interpolationmode none
attr title "packet popped, vector(packetBytes)"
vector 185 FanetSecureGrayHole.host[0].wlan[0].mac.queue queueingTime:vector ETV
attr interpolationmode none
attr source queueingTime(packetPopped)
attr title "queueing times, vector"
attr unit s
vector 186 FanetSecureGrayHole.host[0].wlan[0].mac sentDownPk:vector(packetBytes) ETV
attr interpolationmode none
attr source packetSentToLower
attr title "packets sent to lower layer, vector(packetBytes)"
vector 187 FanetSecureGrayHole.host[23].wlan[0].mac rcvdPkFromLl:vector(packetBytes) ETV
attr interpolationmode none
attr source packetReceivedFromLower
attr title "packets received from lower layer, vector(packetBytes)"
vector 188 FanetSecureGrayHole.host[23].wlan[0].mac passedUpPk:vector(packetBytes) ETV
attr interpolationmode none
attr source packetSentToUpper
attr title "packets passed to higher layer, vector(packetBytes)"
vector 189 FanetSecureGrayHole.host[17].wlan[0].mac rcvdPkFromLl:vector(packetBytes) ETV
attr interpolationmode none
attr source packetReceivedFromLower
attr title "packets received from lower layer, vector(packetBytes)"
vector 190 FanetSecureGrayHole.host[17].wlan[0].mac passedUpPk:vector(packetBytes) ETV
attr interpolationmode none
attr source packetSentToUpper
attr title "packets passed to higher layer, vector(packetBytes)"
vector 191 FanetSecureGrayHole.host[24].wlan[0].mac rcvdPkFromHl:vector(packetBytes) ETV
attr interpolationmode none
attr source packetReceivedFromUpper
attr title "packets received from higher layer, vector(packetBytes)"
vector 192 FanetSecureGrayHole.host[24].wlan[0].mac.queue packetPushed:vector(packetBytes) ETV
attr interpolationmode none
attr title "packet pushed, vector(packetBytes)"
vector 193 FanetSecureGrayHole.host[24].wlan[0].mac.queue queueLength:vector ETV
attr interpolationmode sample-hold
attr source "count(packetPushed) - count(packetPopped) - count(packetRemoved) - count(packetDropped)"
attr title "queue length, vector"
vector 194 FanetSecureGrayHole.host[24].wlan[0].mac.queue packetPopped:vector(packetBytes) ETV
attr interpolationmode none
attr title "packet popped, vector(packetBytes)"
vector 195 FanetSecureGrayHole.host[24].wlan[0].mac.queue queueingTime:vector ETV
attr interpolationmode none
attr source queueingTime(packetPopped)
attr title "queueing times, vector"
attr unit s
vector 196 FanetSecureGrayHole.host[24].wlan[0].mac sentDownPk:vector(packetBytes) ETV
attr interpolationmode none
attr source packetSentToLower
attr title "packets sent to lower layer, vector(packetBytes)"
vector 197 FanetSecureGrayHole.host[1].wlan[0].mac rcvdPkFromHl:vector(packetBytes) ETV
attr interpolationmode none
attr source packetReceivedFromUpper
attr title "packets received from higher layer, vector(packetBytes)"
vector 198 FanetSecureGrayHole.host[1].wlan[0].mac.queue packetPushed:vector(packetBytes) ETV
attr interpolationmode none
attr title "packet pushed, vector(packetBytes)"
vector 199 FanetSecureGrayHole.host[1].wlan[0].mac.queue queueLength:vector ETV
attr interpolationmode sample-hold
attr source "count(packetPushed) - count(packetPopped) - count(packetRemoved) - count(packetDropped)"
attr title "queue length, vector"
vector 200 FanetSecureGrayHole.host[1].wlan[0].mac.queue packetPopped:vector(packetBytes) ETV
attr interpolationmode none
attr title "packet popped, vector(packetBytes)"
vector 201 FanetSecureGrayHole.host[1].wlan[0].mac.queue queueingTime:vector ETV
attr interpolationmode none
attr source queueingTime(packetPopped)
attr title "queueing times, vector"
attr unit s
vector 202 FanetSecureGrayHole.host[1].wlan[0].mac sentDownPk:vector(packetBytes) ETV
attr interpolationmode none
attr source packetSentToLower
attr title "packets sent to lower layer, vector(packetBytes)"
vector 203 FanetSecureGrayHole.host[13].wlan[0].mac rcvdPkFromLl:vector(packetBytes) ETV
attr interpolationmode none
attr source packetReceivedFromLower
attr title "packets received from lower layer, vector(packetBytes)"
vector 204 FanetSecureGrayHole.host[13].wlan[0].mac passedUpPk:vector(packetBytes) ETV
attr interpolationmode none
attr source packetSentToUpper
attr title "packets passed to higher layer, vector(packetBytes)"
vector 205 FanetSecureGrayHole.host[21].wlan[0].mac rcvdPkFromLl:vector(packetBytes) ETV
attr interpolationmode none
attr source packetReceivedFromLower
attr title "packets received from lower layer, vector(packetBytes)"
vector 206 FanetSecureGrayHole.host[21].wlan[0].mac passedUpPk:vector(packetBytes) ETV
attr interpolationmode none
attr source packetSentToUpper
attr title "packets passed to higher layer, vector(packetBytes)"
vector 207 FanetSecureGrayHole.host[0].app[0] packetSent:vector(packetBytes) ETV
attr interpolationmode none
attr source packetSent
attr title "packets sent, vector(packetBytes)"
vector 208 FanetSecureGrayHole.host[0].udp packetSent:vector(packetBytes) ETV
attr interpolationmode none
attr source packetSent
attr title "packets sent, vector(packetBytes)"
vector 209 FanetSecureGrayHole.host[16].wlan[0].mac packetDropNotAddressedToUs:vector(packetBytes) ETV
attr interpolationmode none
attr source packetDropReasonIsNotAddressedToUs(packetDropped)
attr title "packet drop: not addressed to us, vector(packetBytes)"
vector 210 FanetSecureGrayHole.host[20].wlan[0].mac packetDropNotAddressedToUs:vector(packetBytes) ETV
attr interpolationmode none
attr source packetDropReasonIsNotAddressedToUs(packetDropped)
attr title "packet drop: not addressed to us, vector(packetBytes)"
vector 211 FanetSecureGrayHole.host[10].wlan[0].mac packetDropNotAddressedToUs:vector(packetBytes) ETV
attr interpolationmode none
attr source packetDropReasonIsNotAddressedToUs(packetDropped)
attr title "packet drop: not addressed to us, vector(packetBytes)"
vector 212 FanetSecureGrayHole.host[17].wlan[0].mac packetDropNotAddressedToUs:vector(packetBytes) ETV
attr interpolationmode none
attr source packetDropReasonIsNotAddressedToUs(packetDropped)
attr title "packet drop: not addressed to us, vector(packetBytes)"
vector 213 FanetSecureGrayHole.host[4].wlan[0].mac packetDropNotAddressedToUs:vector(packetBytes) ETV
attr interpolationmode none
attr source packetDropReasonIsNotAddressedToUs(packetDropped)
attr title "packet drop: not addressed to us, vector(packetBytes)"
vector 214 FanetSecureGrayHole.host[24].wlan[0].mac packetDropNotAddressedToUs:vector(packetBytes) ETV
attr interpolationmode none
attr source packetDropReasonIsNotAddressedToUs(packetDropped)
attr title "packet drop: not addressed to us, vector(packetBytes)"
vector 215 FanetSecureGrayHole.host[3].wlan[0].mac packetDropNotAddressedToUs:vector(packetBytes) ETV
attr interpolationmode none
attr source packetDropReasonIsNotAddressedToUs(packetDropped)
attr title "packet drop: not addressed to us, vector(packetBytes)"
vector 216 FanetSecureGrayHole.host[23].wlan[0].mac packetDropNotAddressedToUs:vector(packetBytes) ETV
attr interpolationmode none
attr source packetDropReasonIsNotAddressedToUs(packetDropped)
attr title "packet drop: not addressed to us, vector(packetBytes)"
vector 217 FanetSecureGrayHole.host[0].wlan[0].mac packetDropNotAddressedToUs:vector(packetBytes) ETV
attr interpolationmode none
attr source packetDropReasonIsNotAddressedToUs(packetDropped)
attr title "packet drop: not addressed to us, vector(packetBytes)"
vector 218 FanetSecureGrayHole.host[22].wlan[0].mac packetDropNotAddressedToUs:vector(packetBytes) ETV
attr interpolationmode none
attr source packetDropReasonIsNotAddressedToUs(packetDropped)
attr title "packet drop: not addressed to us, vector(packetBytes)"
vector 219 FanetSecureGrayHole.host[9].wlan[0].mac packetDropNotAddressedToUs:vector(packetBytes) ETV
attr interpolationmode none
attr source packetDropReasonIsNotAddressedToUs(packetDropped)
attr title "packet drop: not addressed to us, vector(packetBytes)"
vector 220 FanetSecureGrayHole.host[19].wlan[0].mac packetDropNotAddressedToUs:vector(packetBytes) ETV
attr interpolationmode none
attr source packetDropReasonIsNotAddressedToUs(packetDropped)
attr title "packet drop: not addressed to us, vector(packetBytes)"
vector 221 FanetSecureGrayHole.host[4].wlan[0].mac rcvdPkFromHl:vector(packetBytes) ETV
attr interpolationmode none
attr source packetReceivedFromUpper
attr title "packets received from higher layer, vector(packetBytes)"
vector 222 FanetSecureGrayHole.host[4].wlan[0].mac.queue packetPushed:vector(packetBytes) ETV
attr interpolationmode none
attr title "packet pushed, vector(packetBytes)"
vector 223 FanetSecureGrayHole.host[4].wlan[0].mac.queue queueLength:vector ETV
attr interpolationmode sample-hold
attr source "count(packetPushed) - count(packetPopped) - count(packetRemoved) - count(packetDropped)"
attr title "queue length, vector"
vector 224 FanetSecureGrayHole.host[4].wlan[0].mac.queue packetPopped:vector(packetBytes) ETV
attr interpolationmode none
attr title "packet popped, vector(packetBytes)"
vector 225 FanetSecureGrayHole.host[4].wlan[0].mac.queue queueingTime:vector ETV
attr interpolationmode none
attr source queueingTime(packetPopped)
attr title "queueing times, vector"
attr unit s
vector 226 FanetSecureGrayHole.host[4].wlan[0].mac sentDownPk:vector(packetBytes) ETV
attr interpolationmode none
attr source packetSentToLower
attr title "packets sent to lower layer, vector(packetBytes)"
vector 227 FanetSecureGrayHole.host[9].wlan[0].mac rcvdPkFromHl:vector(packetBytes) ETV
attr interpolationmode none
attr source packetReceivedFromUpper
attr title "packets received from higher layer, vector(packetBytes)"
vector 228 FanetSecureGrayHole.host[9].wlan[0].mac.queue packetPushed:vector(packetBytes) ETV
attr interpolationmode none
attr title "packet pushed, vector(packetBytes)"
vector 229 FanetSecureGrayHole.host[9].wlan[0].mac.queue queueLength:vector ETV
attr interpolationmode sample-hold
attr source "count(packetPushed) - count(packetPopped) - count(packetRemoved) - count(packetDropped)"
attr title "queue length, vector"
vector 230 FanetSecureGrayHole.host[9].wlan[0].mac.queue packetPopped:vector(packetBytes) ETV
attr interpolationmode none
attr title "packet popped, vector(packetBytes)"
vector 231 FanetSecureGrayHole.host[9].wlan[0].mac.queue queueingTime:vector ETV
attr interpolationmode none
attr source queueingTime(packetPopped)
attr title "queueing times, vector"
attr unit s
vector 232 FanetSecureGrayHole.host[9].wlan[0].mac sentDownPk:vector(packetBytes) ETV
attr interpolationmode none
attr source packetSentToLower
attr title "packets sent to lower layer, vector(packetBytes)"
vector 233 FanetSecureGrayHole.host[10].wlan[0].mac rcvdPkFromHl:vector(packetBytes) ETV
attr interpolationmode none
attr source packetReceivedFromUpper
attr title "packets received from higher layer, vector(packetBytes)"
vector 234 FanetSecureGrayHole.host[10].wlan[0].mac.queue packetPushed:vector(packetBytes) ETV
attr interpolationmode none
attr title "packet pushed, vector(packetBytes)"
vector 235 FanetSecureGrayHole.host[10].wlan[0].mac.queue queueLength:vector ETV
attr interpolationmode sample-hold
attr source "count(packetPushed) - count(packetPopped) - count(packetRemoved) - count(packetDropped)"
attr title "queue length, vector"
vector 236 FanetSecureGrayHole.host[10].wlan[0].mac.queue packetPopped:vector(packetBytes) ETV
attr interpolationmode none
attr title "packet popped, vector(packetBytes)"
vector 237 FanetSecureGrayHole.host[10].wlan[0].mac.queue queueingTime:vector ETV
attr interpolationmode none
attr source queueingTime(packetPopped)
attr title "queueing times, vector"
attr unit s
vector 238 FanetSecureGrayHole.host[10].wlan[0].mac sentDownPk:vector(packetBytes) ETV
attr interpolationmode none
attr source packetSentToLower
attr title "packets sent to lower layer, vector(packetBytes)"
vector 239 FanetSecureGrayHole.host[2].wlan[0].mac rcvdPkFromHl:vector(packetBytes) ETV
attr interpolationmode none
attr source packetReceivedFromUpper
attr title "packets received from higher layer, vector(packetBytes)"
vector 240 FanetSecureGrayHole.host[2].wlan[0].mac.queue packetPushed:vector(packetBytes) ETV
attr interpolationmode none
attr title "packet pushed, vector(packetBytes)"
vector 241 FanetSecureGrayHole.host[2].wlan[0].mac.queue queueLength:vector ETV
attr interpolationmode sample-hold
attr source "count(packetPushed) - count(packetPopped) - count(packetRemoved) - count(packetDropped)"
attr title "queue length, vector"
vector 242 FanetSecureGrayHole.host[2].wlan[0].mac.queue packetPopped:vector(packetBytes) ETV
attr interpolationmode none
attr title "packet popped, vector(packetBytes)"
vector 243 FanetSecureGrayHole.host[2].wlan[0].mac.queue queueingTime:vector ETV
attr interpolationmode none
attr source queueingTime(packetPopped)
attr title "queueing times, vector"
attr unit s
vector 244 FanetSecureGrayHole.host[2].wlan[0].mac sentDownPk:vector(packetBytes) ETV
attr interpolationmode none
attr source packetSentToLower
attr title "packets sent to lower layer, vector(packetBytes)"
vector 245 FanetSecureGrayHole.host[20].wlan[0].mac rcvdPkFromHl:vector(packetBytes) ETV
attr interpolationmode none
attr source packetReceivedFromUpper
attr title "packets received from higher layer, vector(packetBytes)"
vector 246 FanetSecureGrayHole.host[20].wlan[0].mac.queue packetPushed:vector(packetBytes) ETV
attr interpolationmode none
attr title "packet pushed, vector(packetBytes)"
vector 247 FanetSecureGrayHole.host[20].wlan[0].mac.queue queueLength:vector ETV
attr interpolationmode sample-hold
attr source "count(packetPushed) - count(packetPopped) - count(packetRemoved) - count(packetDropped)"
attr title "queue length, vector"
vector 248 FanetSecureGrayHole.host[20].wlan[0].mac.queue packetPopped:vector(packetBytes) ETV
attr interpolationmode none
attr title "packet popped, vector(packetBytes)"
vector 249 FanetSecureGrayHole.host[20].wlan[0].mac.queue queueingTime:vector ETV
attr interpolationmode none
attr source queueingTime(packetPopped)
attr title "queueing times, vector"
attr unit s
vector 250 FanetSecureGrayHole.host[20].wlan[0].mac sentDownPk:vector(packetBytes) ETV
attr interpolationmode none
attr source packetSentToLower
attr title "packets sent to lower layer, vector(packetBytes)"
vector 251 FanetSecureGrayHole.host[21].wlan[0].mac rcvdPkFromHl:vector(packetBytes) ETV
attr interpolationmode none
attr source packetReceivedFromUpper
attr title "packets received from higher layer, vector(packetBytes)"
vector 252 FanetSecureGrayHole.host[21].wlan[0].mac.queue packetPushed:vector(packetBytes) ETV
attr interpolationmode none
attr title "packet pushed, vector(packetBytes)"
vector 253 FanetSecureGrayHole.host[21].wlan[0].mac.queue queueLength:vector ETV
attr interpolationmode sample-hold
attr source "count(packetPushed) - count(packetPopped) - count(packetRemoved) - count(packetDropped)"
attr title "queue length, vector"
vector 254 FanetSecureGrayHole.host[21].wlan[0].mac.queue packetPopped:vector(packetBytes) ETV
attr interpolationmode none
attr title "packet popped, vector(packetBytes)"
vector 255 FanetSecureGrayHole.host[21].wlan[0].mac.queue queueingTime:vector ETV
attr interpolationmode none
attr source queueingTime(packetPopped)
attr title "queueing times, vector"
attr unit s
vector 256 FanetSecureGrayHole.host[21].wlan[0].mac sentDownPk:vector(packetBytes) ETV
attr interpolationmode none
attr source packetSentToLower
attr title "packets sent to lower layer, vector(packetBytes)"
vector 257 FanetSecureGrayHole.host[3].wlan[0].mac rcvdPkFromHl:vector(packetBytes) ETV
attr interpolationmode none
attr source packetReceivedFromUpper
attr title "packets received from higher layer, vector(packetBytes)"
vector 258 FanetSecureGrayHole.host[3].wlan[0].mac.queue packetPushed:vector(packetBytes) ETV
attr interpolationmode none
attr title "packet pushed, vector(packetBytes)"
vector 259 FanetSecureGrayHole.host[3].wlan[0].mac.queue queueLength:vector ETV
attr interpolationmode sample-hold
attr source "count(packetPushed) - count(packetPopped) - count(packetRemoved) - count(packetDropped)"
attr title "queue length, vector"
vector 260 FanetSecureGrayHole.host[3].wlan[0].mac.queue packetPopped:vector(packetBytes) ETV
attr interpolationmode none
attr title "packet popped, vector(packetBytes)"
vector 261 FanetSecureGrayHole.host[3].wlan[0].mac.queue queueingTime:vector ETV
attr interpolationmode none
attr source queueingTime(packetPopped)
attr title "queueing times, vector"
attr unit s
vector 262 FanetSecureGrayHole.host[3].wlan[0].mac sentDownPk:vector(packetBytes) ETV
attr interpolationmode none
attr source packetSentToLower
attr title "packets sent to lower layer, vector(packetBytes)"
vector 263 FanetSecureGrayHole.host[7].wlan[0].mac rcvdPkFromHl:vector(packetBytes) ETV
attr interpolationmode none
attr source packetReceivedFromUpper
attr title "packets received from higher layer, vector(packetBytes)"
vector 264 FanetSecureGrayHole.host[7].wlan[0].mac.queue packetPushed:vector(packetBytes) ETV
attr interpolationmode none
attr title "packet pushed, vector(packetBytes)"
vector 265 FanetSecureGrayHole.host[7].wlan[0].mac.queue queueLength:vector ETV
attr interpolationmode sample-hold
attr source "count(packetPushed) - count(packetPopped) - count(packetRemoved) - count(packetDropped)"
attr title "queue length, vector"
vector 266 FanetSecureGrayHole.host[7].wlan[0].mac.queue packetPopped:vector(packetBytes) ETV
attr interpolationmode none
attr title "packet popped, vector(packetBytes)"
vector 267 FanetSecureGrayHole.host[7].wlan[0].mac.queue queueingTime:vector ETV
attr interpolationmode none
attr source queueingTime(packetPopped)
attr title "queueing times, vector"
attr unit s
vector 268 FanetSecureGrayHole.host[7].wlan[0].mac sentDownPk:vector(packetBytes) ETV
attr interpolationmode none
attr source packetSentToLower
attr title "packets sent to lower layer, vector(packetBytes)"
vector 269 FanetSecureGrayHole.host[5].wlan[0].mac rcvdPkFromHl:vector(packetBytes) ETV
attr interpolationmode none
attr source packetReceivedFromUpper
attr title "packets received from higher layer, vector(packetBytes)"
vector 270 FanetSecureGrayHole.host[5].wlan[0].mac.queue packetPushed:vector(packetBytes) ETV
attr interpolationmode none
attr title "packet pushed, vector(packetBytes)"
vector 271 FanetSecureGrayHole.host[5].wlan[0].mac.queue queueLength:vector ETV
attr interpolationmode sample-hold
attr source "count(packetPushed) - count(packetPopped) - count(packetRemoved) - count(packetDropped)"
attr title "queue length, vector"
vector 272 FanetSecureGrayHole.host[5].wlan[0].mac.queue packetPopped:vector(packetBytes) ETV
attr interpolationmode none
attr title "packet popped, vector(packetBytes)"
vector 273 FanetSecureGrayHole.host[5].wlan[0].mac.queue queueingTime:vector ETV
attr interpolationmode none
attr source queueingTime(packetPopped)
attr title "queueing times, vector"
attr unit s
vector 274 FanetSecureGrayHole.host[5].wlan[0].mac sentDownPk:vector(packetBytes) ETV
attr interpolationmode none
attr source packetSentToLower
attr title "packets sent to lower layer, vector(packetBytes)"
vector 275 FanetSecureGrayHole.host[14].wlan[0].mac rcvdPkFromHl:vector(packetBytes) ETV
attr interpolationmode none
attr source packetReceivedFromUpper
attr title "packets received from higher layer, vector(packetBytes)"
vector 276 FanetSecureGrayHole.host[14].wlan[0].mac.queue packetPushed:vector(packetBytes) ETV
attr interpolationmode none
attr title "packet pushed, vector(packetBytes)"
vector 277 FanetSecureGrayHole.host[14].wlan[0].mac.queue queueLength:vector ETV
attr interpolationmode sample-hold
attr source "count(packetPushed) - count(packetPopped) - count(packetRemoved) - count(packetDropped)"
attr title "queue length, vector"
vector 278 FanetSecureGrayHole.host[14].wlan[0].mac.queue packetPopped:vector(packetBytes) ETV
attr interpolationmode none
attr title "packet popped, vector(packetBytes)"
vector 279 FanetSecureGrayHole.host[14].wlan[0].mac.queue queueingTime:vector ETV
attr interpolationmode none
attr source queueingTime(packetPopped)
attr title "queueing times, vector"
attr unit s
vector 280 FanetSecureGrayHole.host[14].wlan[0].mac sentDownPk:vector(packetBytes) ETV
attr interpolationmode none
attr source packetSentToLower
attr title "packets sent to lower layer, vector(packetBytes)"
vector 281 FanetSecureGrayHole.host[16].wlan[0].mac rcvdPkFromHl:vector(packetBytes) ETV
attr interpolationmode none
attr source packetReceivedFromUpper
attr title "packets received from higher layer, vector(packetBytes)"
vector 282 FanetSecureGrayHole.host[16].wlan[0].mac.queue packetPushed:vector(packetBytes) ETV
attr interpolationmode none
attr title "packet pushed, vector(packetBytes)"
vector 283 FanetSecureGrayHole.host[16].wlan[0].mac.queue queueLength:vector ETV
attr interpolationmode sample-hold
attr source "count(packetPushed) - count(packetPopped) - count(packetRemoved) - count(packetDropped)"
attr title "queue length, vector"
vector 284 FanetSecureGrayHole.host[16].wlan[0].mac.queue packetPopped:vector(packetBytes) ETV
attr interpolationmode none
attr title "packet popped, vector(packetBytes)"
vector 285 FanetSecureGrayHole.host[16].wlan[0].mac.queue queueingTime:vector ETV
attr interpolationmode none
attr source queueingTime(packetPopped)
attr title "queueing times, vector"
attr unit s
vector 286 FanetSecureGrayHole.host[16].wlan[0].mac sentDownPk:vector(packetBytes) ETV
attr interpolationmode none
attr source packetSentToLower
attr title "packets sent to lower layer, vector(packetBytes)"
vector 287 FanetSecureGrayHole.host[15].wlan[0].mac packetDropNotAddressedToUs:vector(packetBytes) ETV
attr interpolationmode none
attr source packetDropReasonIsNotAddressedToUs(packetDropped)
attr title "packet drop: not addressed to us, vector(packetBytes)"
vector 288 FanetSecureGrayHole.host[12].wlan[0].mac packetDropNotAddressedToUs:vector(packetBytes) ETV
attr interpolationmode none
attr source packetDropReasonIsNotAddressedToUs(packetDropped)
attr title "packet drop: not addressed to us, vector(packetBytes)"
vector 289 FanetSecureGrayHole.host[7].wlan[0].mac packetDropNotAddressedToUs:vector(packetBytes) ETV
attr interpolationmode none
attr source packetDropReasonIsNotAddressedToUs(packetDropped)
attr title "packet drop: not addressed to us, vector(packetBytes)"
vector 290 FanetSecureGrayHole.host[5].wlan[0].mac packetDropNotAddressedToUs:vector(packetBytes) ETV
attr interpolationmode none
attr source packetDropReasonIsNotAddressedToUs(packetDropped)
attr title "packet drop: not addressed to us, vector(packetBytes)"
vector 291 FanetSecureGrayHole.host[14].wlan[0].mac packetDropNotAddressedToUs:vector(packetBytes) ETV
attr interpolationmode none
attr source packetDropReasonIsNotAddressedToUs(packetDropped)
attr title "packet drop: not addressed to us, vector(packetBytes)"
vector 292 FanetSecureGrayHole.host[6].wlan[0].mac packetDropNotAddressedToUs:vector(packetBytes) ETV
attr interpolationmode none
attr source packetDropReasonIsNotAddressedToUs(packetDropped)
attr title "packet drop: not addressed to us, vector(packetBytes)"
vector 293 FanetSecureGrayHole.host[8].wlan[0].mac packetDropNotAddressedToUs:vector(packetBytes) ETV
attr interpolationmode none
attr source packetDropReasonIsNotAddressedToUs(packetDropped)
attr title "packet drop: not addressed to us, vector(packetBytes)"
vector 294 FanetSecureGrayHole.host[11].wlan[0].mac packetDropNotAddressedToUs:vector(packetBytes) ETV
attr interpolationmode none
attr source packetDropReasonIsNotAddressedToUs(packetDropped)
attr title "packet drop: not addressed to us, vector(packetBytes)"
vector 295 FanetSecureGrayHole.host[5].ipv4.ip packetDropHopLimitReached:vector(packetBytes) ETV
attr interpolationmode none
attr source packetDropReasonIsHopLimitReached(packetDropped)
attr title "packet drop: hop limit reached, vector(packetBytes)"
vector 296 FanetSecureGrayHole.host[18].wlan[0].mac rcvdPkFromLl:vector(packetBytes) ETV
attr interpolationmode none
attr source packetReceivedFromLower
attr title "packets received from lower layer, vector(packetBytes)"
vector 297 FanetSecureGrayHole.host[18].wlan[0].mac passedUpPk:vector(packetBytes) ETV
attr interpolationmode none
attr source packetSentToUpper
attr title "packets passed to higher layer, vector(packetBytes)"
vector 298 FanetSecureGrayHole.host[19].ipv4.ip packetDropHopLimitReached:vector(packetBytes) ETV
attr interpolationmode none
attr source packetDropReasonIsHopLimitReached(packetDropped)
attr title "packet drop: hop limit reached, vector(packetBytes)"
vector 299 FanetSecureGrayHole.host[1].udp packetReceived:vector(packetBytes) ETV
attr interpolationmode none
attr source packetReceived
attr title "packets received, vector(packetBytes)"
vector 300 FanetSecureGrayHole.host[1].udp passedUpPk:vector(count) ETV
attr interpolationmode none
attr source packetSentToUpper
attr title "packets passed up, vector(count)"
vector 301 FanetSecureGrayHole.host[1].app[0] packetReceived:vector(packetBytes) ETV
attr interpolationmode none
attr source packetReceived
attr title "packets received, vector(packetBytes)"
vector 302 FanetSecureGrayHole.host[1].app[0] throughput:vector ETV
attr source throughput(packetReceived)
attr title "throughput, vector"
attr unit bps
vector 303 FanetSecureGrayHole.host[1].app[0] endToEndDelay:vector ETV
attr interpolationmode none
attr source dataAge(packetReceived)
attr title "end-to-end delay, vector"
attr unit s
vector 304 FanetSecureGrayHole.host[1].app[0] rcvdPkSeqNo:vector ETV
attr interpolationmode none
attr source appPkSeqNo(packetReceived)
attr title "received packet sequence number, vector"
vector 305 FanetSecureGrayHole.host[21].wlan[0].mac packetDropNotAddressedToUs:vector(packetBytes) ETV
attr interpolationmode none
attr source packetDropReasonIsNotAddressedToUs(packetDropped)
attr title "packet drop: not addressed to us, vector(packetBytes)"
vector 306 FanetSecureGrayHole.host[13].wlan[0].mac packetDropNotAddressedToUs:vector(packetBytes) ETV
attr interpolationmode none
attr source packetDropReasonIsNotAddressedToUs(packetDropped)
attr title "packet drop: not addressed to us, vector(packetBytes)"
vector 307 FanetSecureGrayHole.host[18].wlan[0].mac packetDropNotAddressedToUs:vector(packetBytes) ETV
attr interpolationmode none
attr source packetDropReasonIsNotAddressedToUs(packetDropped)
attr title "packet drop: not addressed to us, vector(packetBytes)"
vector 308 FanetSecureGrayHole.host[2].wlan[0].mac packetDropNotAddressedToUs:vector(packetBytes) ETV
attr interpolationmode none
attr source packetDropReasonIsNotAddressedToUs(packetDropped)
attr title "packet drop: not addressed to us, vector(packetBytes)"
vector 309 FanetSecureGrayHole.host[1].wlan[0].mac packetDropNotAddressedToUs:vector(packetBytes) ETV
attr interpolationmode none
attr source packetDropReasonIsNotAddressedToUs(packetDropped)
attr title "packet drop: not addressed to us, vector(packetBytes)"
0	0	0	0
0	0	0	0
0	0	0	4
1	0	0	0
1	0	0	0
1	0	0	4
2	0	0	0
2	0	0	0
2	0	0	4
3	0	0	0
3	0	0	0
3	0	0	4
4	0	0	0
4	0	0	0
4	0	0	4
5	0	0	0
5	0	0	0
5	0	0	4
6	0	0	0
6	0	0	0
6	0	0	4
7	0	0	0
7	0	0	0
7	0	0	4
8	0	0	0
8	0	0	0
8	0	0	4
9	0	0	0
9	0	0	0
9	0	0	4
10	0	0	0
10	0	0	0
10	0	0	4
11	0	0	0
11	0	0	0
11	0	0	4
12	0	0	0
12	0	0	0
12	0	0	4
13	0	0	0
13	0	0	0
13	0	0	4
14	0	0	0
14	0	0	0
14	0	0	4
15	0	0	0
15	0	0	0
15	0	0	4
16	0	0	0
16	0	0	0
16	0	0	4
17	0	0	0
17	0	0	0
17	0	0	4
18	0	0	0
18	0	0	0
18	0	0	4
19	0	0	0
19	0	0	0
19	0	0	4
20	0	0	0
20	0	0	0
20	0	0	4
21	0	0	0
21	0	0	0
21	0	0	4
22	0	0	0
22	0	0	0
22	0	0	4
23	0	0	0
23	0	0	0
23	0	0	4
24	0	0	0
24	0	0	0
24	0	0	4
25	0	0	1
25	2000	7.726563899749	3
25	2037	7.726586566416	1
25	2950	9.799772328367	3
25	2978	9.799794995034	1
25	3718	11.000366543339	3
25	3759	11.000731876672	1
25	3843	11.001098989904	3
25	3885	11.001464323237	1
25	3899	11.001465177969	3
25	3945	11.001830511302	1
25	4072	11.002563524525	3
25	4116	11.002928857858	1
25	4128	11.002929530319	3
25	4170	11.003294863652	1
25	4269	11.027634612002	3
25	4306	11.027657278669	1
25	4498	11.458942022388	3
25	4526	11.458964689055	1
25	4996	12.917251148552	3
25	5024	12.917273815219	1
25	5251	13.442658316337	3
25	5291	13.442680983004	1
25	5943	14.636628121529	3
25	5971	14.636650788196	1
25	6122	14.84558894411	3
25	6162	14.845954277443	1
25	6166	14.845954392079	3
25	6213	14.846319725412	1
25	6294	14.846686822655	3
25	6330	14.847052155988	1
25	10249	16.266953682745	3
25	10289	16.267319016078	1
25	10293	16.267319174298	3
25	10341	16.267684507631	1
25	10425	16.268051732942	3
25	10464	16.268417066275	1
25	14099	16.908648385537	3
25	14139	16.90901371887	1
25	14143	16.909013882985	3
25	14191	16.909379216318	1
25	14275	16.909746497425	3
25	14314	16.910111830758	1
25	17746	17.083953872598	3
25	17771	17.083976539265	1
25	17899	17.114851668787	3
25	17939	17.11521700212	1
25	17943	17.115217167986	3
25	17991	17.115582501319	1
25	18075	17.115949799296	3
25	18114	17.116315132629	1
25	18528	17.723934090437	3
25	18568	17.72429942377	1
25	18572	17.724299589559	3
25	18620	17.724664922892	1
25	18792	17.869212117385	3
25	18832	17.869577450718	1
25	18837	17.869577616524	3
25	18884	17.869942949857	1
25	19130	18.260982926275	3
25	19170	18.261348259608	1
25	19175	18.261348424412	3
25	19222	18.261713757745	1
25	19418	18.423119414821	3
25	19458	18.423484748154	1
25	19463	18.423484912326	3
25	19510	18.423850245659	1
25	19605	18.482187621643	3
25	19636	18.48221028831	1
25	19778	18.674561345534	3
25	19818	18.674926678867	1
25	19823	18.67492684207	3
25	19870	18.675292175403	1
25	21120	21.552476351839	3
25	21161	21.552841685172	1
25	21164	21.55284186566	3
25	21210	21.553207198993	1
25	21227	21.553207765076	3
25	21268	21.553573098409	1
25	21292	21.553574159583	3
25	21332	21.553939492916	1
25	21588	21.982530102102	3
25	21619	21.982552768769	1
25	21904	22.74858413882	3
25	21946	22.748949472153	1
25	21949	22.748949660255	3
25	21995	22.749314993588	1
25	22012	22.749315683909	3
25	22053	22.749681017242	1
25	22075	22.749681985058	3
25	22116	22.750047318391	1
25	22735	23.847496600677	3
25	22777	23.84786193401	1
25	22781	23.847862114648	3
25	22826	23.848227447981	1
25	22899	23.848593601014	3
25	22944	23.848958934347	1
25	22965	23.848959759733	3
25	23007	23.849325093066	1
25	23320	24.290900629455	3
25	23362	24.291265962788	1
25	23367	24.291266142195	3
25	23411	24.291631475528	1
25	23484	24.291997684332	3
25	23529	24.292363017665	1
25	23550	24.292363791689	3
25	23592	24.292729125022	1
25	23802	24.468049557802	3
25	23836	24.468072224469	1
25	24028	24.669862594918	3
25	24070	24.670227928251	1
25	24075	24.670228107327	3
25	24119	24.67059344066	1
25	24195	24.670959703312	3
25	24242	24.671325036645	1
25	24258	24.671325770025	3
25	24300	24.671691103358	1
25	24468	24.709045751466	3
25	24510	24.709411084799	1
25	24515	24.709411263839	3
25	24559	24.709776597172	1
25	24637	24.710142865564	3
25	24682	24.710508198897	1
25	24698	24.710508928103	3
25	24740	24.710874261436	1
25	24909	25.010360483466	3
25	24940	25.010383150133	1
25	25067	25.197318905733	3
25	25101	25.1973415724	1
25	25170	25.231453324062	3
25	25204	25.231475990729	1
25	25542	25.714916764664	3
25	25584	25.715282097997	1
25	25593	25.715282277809	3
25	25641	25.715647611142	1
25	25650	25.715647882805	3
25	25693	25.716013216138	1
25	25716	25.716014229045	3
25	25760	25.716379562378	1
25	25769	25.716379742099	3
25	25817	25.716745075432	1
25	25826	25.71674534714	3
25	25869	25.717110680473	1
25	25892	25.717111693389	3
25	25936	25.717477026722	1
25	25945	25.717477206351	3
25	25993	25.717842539684	1
25	26002	25.717842811438	3
25	26045	25.718208144771	1
25	26068	25.718209157697	3
25	26112	25.71857449103	1
25	26121	25.718574670568	3
25	26169	25.718940003901	1
25	26178	25.718940275699	3
25	26221	25.719305609032	1
25	26244	25.719306621968	3
25	26288	25.719671955301	1
25	26297	25.719672134747	3
25	26345	25.72003746808	1
25	26354	25.720037739924	3
25	26397	25.720403073257	1
25	26420	25.720404086202	3
25	26464	25.720769419535	1
25	26473	25.720769598891	3
25	26521	25.721134932224	1
25	26530	25.721135204113	3
25	26573	25.721500537446	1
25	26596	25.721501550401	3
25	26640	25.721866883734	1
25	26649	25.721867062997	3
25	26697	25.72223239633	1
25	26706	25.722232668265	3
25	26749	25.722598001598	1
25	26772	25.722599014561	3
25	26816	25.722964347894	1
25	26825	25.722964527066	3
25	26873	25.723329860399	1
25	26882	25.723330132379	3
25	26925	25.723695465712	1
25	26948	25.723696478684	3
25	26992	25.724061812017	1
25	27001	25.724061991099	3
25	27049	25.724427324432	1
25	27058	25.724427596457	3
25	27101	25.72479292979	1
25	27124	25.724793942772	3
25	27169	25.725159276105	1
25	27178	25.725159455094	3
25	27227	25.725524788427	1
25	27236	25.725525060498	3
25	27280	25.725890393831	1
25	27303	25.725891406823	3
25	27349	25.726256740156	1
25	27358	25.726256919055	3
25	27403	25.726311585722	1
25	28040	27.584784707945	3
25	28071	27.584807374612	1
25	28750	29.651527558017	3
25	28778	29.651550224684	1
25	28877	29.826291253505	3
25	28911	29.826313920172	1
25	29255	30.516486342015	3
25	29286	30.516509008682	1
25	29565	31.075017113058	3
25	29606	31.075382446391	1
25	29746	31.21776702089	3
25	29783	31.217789687557	1
25	30095	32.143089308407	3
25	30140	32.14345464174	1
25	30444	32.58191784633	3
25	30475	32.581940512997	1
25	30723	33.105157288347	3
25	30763	33.105179955014	1
25	30975	33.649724628606	3
25	31019	33.650089961939	1
25	31243	33.751869509998	3
25	31287	33.752234843331	1
25	31760	34.871683866364	3
25	31805	34.872049199697	1
25	32696	36.759356420939	3
25	32727	36.759379087606	1
25	33619	38.620715309396	3
25	33662	38.621080642729	1
25	33797	38.896561979744	3
25	33822	38.896584646411	1
25	34137	39.389784893555	3
25	34177	39.389807560222	1
25	34210	39.398502791702	3
25	34247	39.398525458369	1
25	34481	39.894099075172	3
25	34521	39.894121741839	1
25	34977	41.269169650942	3
25	35005	41.269192317609	1
25	35624	42.512285362038	3
25	35667	42.512650695371	1
25	36066	43.345128858631	3
25	36110	43.345494191964	1
25	36379	43.653543692623	3
25	36423	43.653909025956	1
25	36792	44.394302630403	3
25	36836	44.394667963736	1
25	36996	44.492952937341	3
25	37040	44.493318270674	1
25	37392	45.098527770914	3
25	37417	45.098550437581	1
25	37718	45.585780086211	3
25	37758	45.585802752878	1
25	37991	46.315089509723	3
25	38034	46.31511217639	1
25	39029	47.807812084946	3
25	39072	47.807834751613	1
25	41144	51.903758750849	3
25	41184	51.903781417516	1
25	41726	53.284217433541	3
25	41751	53.284240100208	1
25	43785	57.786830665355	3
25	43810	57.786853332022	1
25	44163	58.485069328456	3
25	44188	58.485091995123	1
25	44854	59.609106444063	3
25	44888	59.60912911073	1
25	47467	65.092160925887	3
25	47492	65.092183592554	1
25	47695	65.367845525095	3
25	47729	65.367868191762	1
25	47909	65.954454727709	3
25	47937	65.954477394376	1
25	48934	68.012079793457	3
25	48971	68.012102460124	1
25	49632	69.559053711612	3
25	49663	69.559076378279	1
25	49784	69.673154863932	3
25	49809	69.673177530599	1
25	51992	74.934647537588	3
25	52020	74.934670204255	1
25	52659	76.324679917079	3
25	52690	76.324702583746	1
25	53200	77.704571457678	3
25	53237	77.704594124345	1
25	53848	79.011394641428	3
25	53882	79.011417308095	1
25	54386	79.756309716236	3
25	54414	79.756332382903	1
25	57761	87.155203057369	3
25	57786	87.155225724036	1
25	58586	89.221760879375	3
25	58617	89.221783546042	1
25	58874	89.882713359346	3
25	58911	89.882736026013	1
25	60965	94.279108190017	3
25	60990	94.279130856684	1
25	63689	99.787301259568	3
25	63714	99.787323926235	1
25	63808	99.951604878163	3
25	63833	99.95162754483	1
25	64598	101.617268838859	3
25	64626	101.617291505526	1
25	68227	110.148716413643	3
25	68255	110.14873908031	1
25	69774	113.097785382237	3
25	69799	113.097808048904	1
25	71598	117.121968526881	3
25	71626	117.121991193548	1
25	71896	117.477627540309	3
25	71944	117.477992873642	1
25	73034	120.146443085255	3
25	73059	120.146465751922	1
25	73340	120.746123779602	3
25	73388	120.746489112935	1
25	74448	123.2245195091	3
25	74476	123.224542175767	1
25	74640	123.39868214319	3
25	74689	123.399047476523	1
25	74786	123.464774150281	3
25	74835	123.465139483614	1
25	75142	124.129581862703	3
25	75187	124.129947196036	1
25	75886	125.678593437271	3
25	75932	125.678958770604	1
25	75993	125.776825842945	3
25	76018	125.776848509612	1
25	76345	126.285872690966	3
25	76391	126.286238024299	1
25	77041	127.643892961381	3
25	77069	127.643915628048	1
25	77642	129.122512808936	3
25	77689	129.122878142269	1
25	78389	130.983944425341	3
25	78437	130.984309758674	1
25	78551	131.083944424415	3
25	78577	131.084309757748	1
25	78819	131.423805473764	3
25	78866	131.424170807097	1
25	79373	132.939874389632	3
25	79420	132.940239722965	1
25	79478	133.093842393639	3
25	79503	133.093865060306	1
25	79777	133.590671734279	3
25	79824	133.591037067612	1
25	80374	134.610858840211	3
25	80421	134.611224173544	1
25	80765	135.169866525265	3
25	80812	135.170231858598	1
25	80872	135.259467364912	3
25	80906	135.259490031579	1
25	81072	135.682581180856	3
25	81119	135.682946514189	1
25	81266	135.936592565831	3
25	81312	135.936957899164	1
25	81407	136.039560932842	3
25	81453	136.039926266175	1
25	82268	138.021451351028	3
25	82314	138.021816684361	1
25	83073	139.729374498103	3
25	83098	139.72939716477	1
25	83394	140.391839023053	3
25	83438	140.392204356386	1
25	84079	141.884471184298	3
25	84127	141.884836517631	1
25	84222	141.939378557726	3
25	84270	141.939743891059	1
25	84999	143.23252646661	3
25	85047	143.232891799943	1
25	85920	145.376912066944	3
25	85968	145.377277400277	1
25	86049	145.540388553914	3
25	86077	145.540411220581	1
25	86142	145.629538805742	3
25	86176	145.629561472409	1
25	86602	147.039877968515	3
25	86650	147.040243301848	1
25	86707	147.143657095962	3
25	86741	147.143679762629	1
25	91942	157.71734484644	3
25	91967	157.717367513107	1
25	92475	158.83160331128	3
25	92506	158.831625977947	1
25	93248	160.468530097326	3
25	93276	160.468552763993	1
25	95535	164.601167574571	3
25	95563	164.601190241238	1
25	99025	171.968978551726	3
25	99050	171.969001218393	1
25	100366	175.06286328868	3
25	100397	175.062885955347	1
25	100504	175.390391554614	3
25	100535	175.390414221281	1
25	103409	181.966713946332	3
25	103437	181.966736612999	1
25	106117	186.560644624522	3
25	106142	186.560667291189	1
25	107112	188.270534440246	3
25	107140	188.270557106913	1
25	108634	190.884457453494	3
25	108662	190.884480120161	1
25	109539	192.871197040973	3
25	109564	192.87121970764	1
25	110443	194.900078996042	3
25	110471	194.900101662709	1
25	114555	203.418075310075	3
25	114580	203.418097976742	1
25	115038	204.371517458879	3
25	115063	204.371540125546	1
25	115427	205.145253662056	3
25	115455	205.145276328723	1
25	119102	213.162086547721	3
[...]
310	180067	236.3	0
310	180067	236.4	0
310	180067	236.5	0
310	180067	236.6	0
310	180067	236.7	0
310	180067	236.8	0
310	180067	236.9	0
310	180067	237	0
310	180067	237.1	0
310	180067	237.2	0
310	180067	237.3	0
310	180067	237.4	0
310	180067	237.5	0
310	180067	237.6	0
310	180067	237.7	0
310	180067	237.8	0
310	180067	237.9	0
310	180067	238	0
310	180067	238.1	0
310	180067	238.2	0
310	180067	238.3	0
310	180067	238.4	0
310	180067	238.5	0
310	180067	238.6	0
310	180067	238.7	0
310	180067	238.8	0
310	180067	238.9	0
310	180067	239	0
310	180067	239.1	0
310	180067	239.2	0
310	180067	239.3	0
310	180067	239.4	0
310	180067	239.5	0
310	180067	239.6	0
310	180067	239.7	0
310	180067	239.8	0
310	180067	239.9	0
310	180067	240	0
310	180067	240.1	0
310	180067	240.2	0
310	180067	240.3	0
310	180067	240.4	0
310	180067	240.5	0
310	180067	240.6	0
310	180067	240.7	0
310	180067	240.8	0
310	180067	240.9	0
310	180067	241	0
310	180067	241.1	0
310	180067	241.2	0
310	180067	241.3	0
310	180067	241.4	0
310	180067	241.5	0
310	180067	241.6	0
310	180067	241.7	0
310	180067	241.8	0
310	180067	241.9	0
310	180067	242	0
310	180067	242.1	0
310	180067	242.2	0
310	180067	242.3	0
310	180067	242.4	0
310	180067	242.5	0
310	180067	242.6	0
310	180067	242.7	0
310	180067	242.8	0
310	180067	242.9	0
310	180067	243	0
310	180067	243.1	0
310	180067	243.2	0
310	180067	243.3	0
310	180067	243.4	0
310	180067	243.5	0
310	180067	243.6	0
310	180067	243.7	0
310	180067	243.8	0
310	180067	243.9	0
310	180067	244	0
310	180067	244.1	0
310	180067	244.2	0
310	180067	244.3	0
310	180067	244.4	0
310	180067	244.5	0
310	180067	244.6	0
310	180067	244.7	0
310	180067	244.8	0
310	180067	244.9	0
310	180067	245	0
310	180067	245.1	0
310	180067	245.2	0
310	180067	245.3	0
310	180067	245.4	0
310	180067	245.5	0
310	180067	245.6	0
310	180067	245.7	0
310	180067	245.8	0
310	180067	245.9	0
310	180067	246	0
310	180067	246.1	0
310	180067	246.2	0
310	180067	246.3	0
310	180067	246.4	0
310	180067	246.5	0
310	180067	246.6	0
310	180067	246.7	0
310	180067	246.8	0
310	180067	246.9	0
310	180067	247	0
310	180067	247.1	0
310	180067	247.2	0
310	180067	247.3	0
310	180067	247.4	0
310	180067	247.5	0
310	180067	247.6	0
310	180067	247.7	0
310	180067	247.8	0
310	180067	247.9	0
310	180067	248	0
310	180067	248.1	0
310	180067	248.2	0
310	180067	248.3	0
310	180067	248.4	0
310	180067	248.5	0
310	180067	248.6	0
310	180067	248.7	0
310	180067	248.8	0
310	180067	248.9	0
310	180067	249	0
310	180067	249.1	0
310	180067	249.2	0
310	180067	249.3	0
310	180067	249.4	0
310	180067	249.5	0
310	180067	249.6	0
310	180067	249.7	0
310	180067	249.8	0
310	180067	249.9	0
310	180067	250	0
310	180067	250.1	0
310	180067	250.2	0
310	180067	250.3	0
310	180067	250.4	0
310	180067	250.5	0
310	180067	250.6	0
310	180067	250.7	0
310	180067	250.8	0
310	180067	250.9	0
310	180067	251	0
310	180067	251.1	0
310	180067	251.2	0
310	180067	251.3	0
310	180067	251.4	0
310	180067	251.5	0
310	180067	251.6	0
310	180067	251.7	0
310	180067	251.8	0
310	180067	251.9	0
310	180067	252	0
310	180067	252.1	0
310	180067	252.2	0
310	180067	252.3	0
310	180067	252.4	0
310	180067	252.5	0
310	180067	252.6	0
310	180067	252.7	0
310	180067	252.8	0
310	180067	252.9	0
310	180067	253	0
310	180067	253.1	0
310	180067	253.2	0
310	180067	253.3	0
310	180067	253.4	0
310	180067	253.5	0
310	180067	253.6	0
310	180067	253.7	0
310	180067	253.8	0
310	180067	253.9	0
310	180067	254	0
310	180067	254.1	0
310	180067	254.2	0
310	180067	254.3	0
310	180067	254.4	0
310	180067	254.5	0
310	180067	254.6	0
310	180067	254.7	0
310	180067	254.8	0
310	180067	254.9	0
310	180067	255	0
310	180067	255.1	0
310	180067	255.2	0
310	180067	255.3	0
310	180067	255.4	0
310	180067	255.5	0
310	180067	255.6	0
310	180067	255.7	0
310	180067	255.8	0
310	180067	255.9	0
310	180067	256	0
310	180067	256.1	0
310	180067	256.2	0
310	180067	256.3	0
310	180067	256.4	0
310	180067	256.5	0
310	180067	256.6	0
310	180067	256.7	0
310	180067	256.8	0
310	180067	256.9	0
310	180067	257	0
310	180067	257.1	0
310	180067	257.2	0
310	180067	257.3	0
310	180067	257.4	0
310	180067	257.5	0
310	180067	257.6	0
310	180067	257.7	0
310	180067	257.8	0
310	180067	257.9	0
310	180067	258	0
310	180067	258.1	0
310	180067	258.2	0
310	180067	258.3	0
310	180067	258.4	0
310	180067	258.5	0
310	180067	258.6	0
310	180067	258.7	0
310	180067	258.8	0
310	180067	258.9	0
310	180067	259	0
310	180067	259.1	0
310	180067	259.2	0
310	180067	259.3	0
310	180067	259.4	0
310	180067	259.5	0
310	180067	259.6	0
310	180067	259.7	0
310	180067	259.8	0
310	180067	259.9	0
310	180067	260	0
310	180067	260.1	0
310	180067	260.2	0
310	180067	260.3	0
310	180067	260.4	0
310	180067	260.5	0
310	180067	260.6	0
310	180067	260.7	0
310	180067	260.8	0
310	180067	260.9	0
310	180067	261	0
310	180067	261.1	0
310	180067	261.2	0
310	180067	261.3	0
310	180067	261.4	0
310	180067	261.5	0
310	180067	261.6	0
310	180067	261.7	0
310	180067	261.8	0
310	180067	261.9	0
310	180067	262	0
310	180067	262.1	0
310	180067	262.2	0
310	180067	262.3	0
310	180067	262.4	0
310	180067	262.5	0
310	180067	262.6	0
310	180067	262.7	0
310	180067	262.8	0
310	180067	262.9	0
310	180067	263	0
310	180067	263.1	0
310	180067	263.2	0
310	180067	263.3	0
310	180067	263.4	0
310	180067	263.5	0
310	180067	263.6	0
310	180067	263.7	0
310	180067	263.8	0
310	180067	263.9	0
310	180067	264	0
310	180067	264.1	0
310	180067	264.2	0
310	180067	264.3	0
310	180067	264.4	0
310	180067	264.5	0
310	180067	264.6	0
310	180067	264.7	0
310	180067	264.8	0
310	180067	264.9	0
310	180067	265	0
310	180067	265.1	0
310	180067	265.2	0
310	180067	265.3	0
310	180067	265.4	0
310	180067	265.5	0
310	180067	265.6	0
310	180067	265.7	0
310	180067	265.8	0
310	180067	265.9	0
310	180067	266	0
310	180067	266.1	0
310	180067	266.2	0
310	180067	266.3	0
310	180067	266.4	0
310	180067	266.5	0
310	180067	266.6	0
310	180067	266.7	0
310	180067	266.8	0
310	180067	266.9	0
310	180067	267	0
310	180067	267.1	0
310	180067	267.2	0
310	180067	267.3	0
310	180067	267.4	0
310	180067	267.5	0
310	180067	267.6	0
310	180067	267.7	0
310	180067	267.8	0
310	180067	267.9	0
310	180067	268	0
310	180067	268.1	0
310	180067	268.2	0
310	180067	268.3	0
310	180067	268.4	0
310	180067	268.5	0
310	180067	268.6	0
310	180067	268.7	0
310	180067	268.8	0
310	180067	268.9	0
310	180067	269	0
310	180067	269.1	0
310	180067	269.2	0
310	180067	269.3	0
310	180067	269.4	0
310	180067	269.5	0
310	180067	269.6	0
310	180067	269.7	0
310	180067	269.8	0
310	180067	269.9	0
310	180067	270	0
310	180067	270.1	0
310	180067	270.2	0
310	180067	270.3	0
310	180067	270.4	0
310	180067	270.5	0
310	180067	270.6	0
310	180067	270.7	0
310	180067	270.8	0
310	180067	270.9	0
310	180067	271	0
310	180067	271.1	0
310	180067	271.2	0
310	180067	271.3	0
310	180067	271.4	0
310	180067	271.5	0
310	180067	271.6	0
310	180067	271.7	0
310	180067	271.8	0
310	180067	271.9	0
310	180067	272	0
310	180067	272.1	0
310	180067	272.2	0
310	180067	272.3	0
310	180067	272.4	0
310	180067	272.5	0
310	180067	272.6	0
310	180067	272.7	0
310	180067	272.8	0
310	180067	272.9	0
310	180067	273	0
310	180067	273.1	0
310	180067	273.2	0
310	180067	273.3	0
310	180067	273.4	0
310	180067	273.5	0
310	180067	273.6	0
310	180067	273.7	0
310	180067	273.8	0
310	180067	273.9	0
310	180067	274	0
310	180067	274.1	0
310	180067	274.2	0
310	180067	274.3	0
310	180067	274.4	0
310	180067	274.5	0
310	180067	274.6	0
310	180067	274.7	0
310	180067	274.8	0
310	180067	274.9	0
310	180067	275	0
310	180067	275.1	0
310	180067	275.2	0
310	180067	275.3	0
310	180067	275.4	0
310	180067	275.5	0
310	180067	275.6	0
310	180067	275.7	0
310	180067	275.8	0
310	180067	275.9	0
310	180067	276	0
310	180067	276.1	0
310	180067	276.2	0
310	180067	276.3	0
310	180067	276.4	0
310	180067	276.5	0
310	180067	276.6	0
310	180067	276.7	0
310	180067	276.8	0
310	180067	276.9	0
310	180067	277	0
310	180067	277.1	0
310	180067	277.2	0
310	180067	277.3	0
310	180067	277.4	0
310	180067	277.5	0
310	180067	277.6	0
310	180067	277.7	0
310	180067	277.8	0
310	180067	277.9	0
310	180067	278	0
310	180067	278.1	0
310	180067	278.2	0
310	180067	278.3	0
310	180067	278.4	0
310	180067	278.5	0
310	180067	278.6	0
310	180067	278.7	0
310	180067	278.8	0
310	180067	278.9	0
310	180067	279	0
310	180067	279.1	0
310	180067	279.2	0
310	180067	279.3	0
310	180067	279.4	0
310	180067	279.5	0
310	180067	279.6	0
310	180067	279.7	0
310	180067	279.8	0
310	180067	279.9	0
310	180067	280	0
310	180067	280.1	0
310	180067	280.2	0
310	180067	280.3	0
310	180067	280.4	0
310	180067	280.5	0
310	180067	280.6	0
310	180067	280.7	0
310	180067	280.8	0
310	180067	280.9	0
310	180067	281	0
310	180067	281.1	0
310	180067	281.2	0
310	180067	281.3	0
310	180067	281.4	0
310	180067	281.5	0
310	180067	281.6	0
310	180067	281.7	0
310	180067	281.8	0
310	180067	281.9	0
310	180067	282	0
310	180067	282.1	0
310	180067	282.2	0
310	180067	282.3	0
310	180067	282.4	0
310	180067	282.5	0
310	180067	282.6	0
310	180067	282.7	0
310	180067	282.8	0
310	180067	282.9	0
310	180067	283	0
310	180067	283.1	0
310	180067	283.2	0
310	180067	283.3	0
310	180067	283.4	0
310	180067	283.5	0
310	180067	283.6	0
310	180067	283.7	0
310	180067	283.8	0
310	180067	283.9	0
310	180067	284	0
310	180067	284.1	0
310	180067	284.2	0
310	180067	284.3	0
310	180067	284.4	0
310	180067	284.5	0
310	180067	284.6	0
310	180067	284.7	0
310	180067	284.8	0
310	180067	284.9	0
310	180067	285	0
310	180067	285.1	0
310	180067	285.2	0
310	180067	285.3	0
310	180067	285.4	0
310	180067	285.5	0
310	180067	285.6	0
310	180067	285.7	0
310	180067	285.8	0
310	180067	285.9	0
310	180067	286	0
310	180067	286.1	0
310	180067	286.2	0
310	180067	286.3	0
310	180067	286.4	0
310	180067	286.5	0
310	180067	286.6	0
310	180067	286.7	0
310	180067	286.8	0
310	180067	286.9	0
310	180067	287	0
310	180067	287.1	0
310	180067	287.2	0
310	180067	287.3	0
310	180067	287.4	0
310	180067	287.5	0
310	180067	287.6	0
310	180067	287.7	0
310	180067	287.8	0
310	180067	287.9	0
310	180067	288	0
310	180067	288.1	0
310	180067	288.2	0
310	180067	288.3	0
310	180067	288.4	0
310	180067	288.5	0
310	180067	288.6	0
310	180067	288.7	0
310	180067	288.8	0
310	180067	288.9	0
310	180067	289	0
310	180067	289.1	0
310	180067	289.2	0
310	180067	289.3	0
310	180067	289.4	0
310	180067	289.5	0
310	180067	289.6	0
310	180067	289.7	0
310	180067	289.8	0
310	180067	289.9	0
310	180067	290	0
310	180067	290.1	0
310	180067	290.2	0
310	180067	290.3	0
310	180067	290.4	0
310	180067	290.5	0
310	180067	290.6	0
310	180067	290.7	0
310	180067	290.8	0
310	180067	290.9	0
310	180067	291	0
310	180067	291.1	0
310	180067	291.2	0
310	180067	291.3	0
310	180067	291.4	0
310	180067	291.5	0
310	180067	291.6	0
310	180067	291.7	0
310	180067	291.8	0
310	180067	291.9	0
310	180067	292	0
310	180067	292.1	0
310	180067	292.2	0
310	180067	292.3	0
310	180067	292.4	0
310	180067	292.5	0
310	180067	292.6	0
310	180067	292.7	0
310	180067	292.8	0
310	180067	292.9	0
310	180067	293	0
310	180067	293.1	0
310	180067	293.2	0
310	180067	293.3	0
310	180067	293.4	0
310	180067	293.5	0
310	180067	293.6	0
310	180067	293.7	0
310	180067	293.8	0
310	180067	293.9	0
310	180067	294	0
310	180067	294.1	0
310	180067	294.2	0
310	180067	294.3	0
310	180067	294.4	0
310	180067	294.5	0
310	180067	294.6	0
310	180067	294.7	0
310	180067	294.8	0
310	180067	294.9	0
310	180067	295	0
310	180067	295.1	0
310	180067	295.2	0
310	180067	295.3	0
310	180067	295.4	0
310	180067	295.5	0
310	180067	295.6	0
310	180067	295.7	0
310	180067	295.8	0
310	180067	295.9	0
310	180067	296	0
310	180067	296.1	0
310	180067	296.2	0
310	180067	296.3	0
310	180067	296.4	0
310	180067	296.5	0
310	180067	296.6	0
310	180067	296.7	0
310	180067	296.8	0
310	180067	296.9	0
310	180067	297	0
310	180067	297.1	0
310	180067	297.2	0
310	180067	297.3	0
310	180067	297.4	0
310	180067	297.5	0
310	180067	297.6	0
310	180067	297.7	0
310	180067	297.8	0
310	180067	297.9	0
310	180067	298	0
310	180067	298.1	0
310	180067	298.2	0
310	180067	298.3	0
310	180067	298.4	0
310	180067	298.5	0
310	180067	298.6	0
310	180067	298.7	0
310	180067	298.8	0
310	180067	298.9	0
310	180067	299	0
310	180067	299.1	0
310	180067	299.2	0
310	180067	299.3	0
310	180067	299.4	0
310	180067	299.5	0
310	180067	299.6	0
310	180067	299.7	0
310	180067	299.8	0
310	180067	299.9	0
310	180067	300	0
310	180067	300.1	0
310	180067	300.2	0
310	180067	300.3	0
310	180067	300.4	0
310	180067	300.5	0
310	180067	300.6	0
310	180067	300.7	0
310	180067	300.8	0
310	180067	300.9	0
310	180067	301	0
310	180067	301.1	0
310	180067	301.2	0
310	180067	301.3	0
310	180067	301.4	0
310	180067	301.5	0
310	180067	301.6	0
310	180067	301.7	0
310	180067	301.8	0
310	180067	301.9	0
310	180067	302	0
310	180067	302.1	0
310	180067	302.2	0
310	180067	302.3	0
310	180067	302.4	0
310	180067	302.5	0
310	180067	302.6	0
310	180067	302.7	0
310	180067	302.8	0
310	180067	302.9	0
310	180067	303	0
310	180067	303.1	0
310	180067	303.2	0
310	180067	303.3	0
310	180067	303.4	0
310	180067	303.5	0
310	180067	303.6	0
310	180067	303.7	0
310	180067	303.8	0
310	180067	303.9	0
310	180067	304	0
310	180067	304.1	0
310	180067	304.2	0
310	180067	304.3	0
310	180067	304.4	0
310	180067	304.5	0
310	180067	304.6	0
310	180067	304.7	0
310	180067	304.8	0
310	180067	304.9	0
310	180067	305	0
310	180067	305.1	0
310	180067	305.2	0
310	180067	305.3	0
310	180067	305.4	0
310	180067	305.5	0
310	180067	305.6	0
310	180067	305.7	0
310	180067	305.8	0
310	180067	305.9	0
310	180067	306	0
310	180067	306.1	0
310	180067	306.2	0
310	180067	306.3	0
310	180067	306.4	0
310	180067	306.5	0
310	180067	306.6	0
310	180067	306.7	0
310	180067	306.8	0
310	180067	306.9	0
310	180067	307	0
310	180067	307.1	0
310	180067	307.2	0
310	180067	307.3	0
310	180067	307.4	0
310	180067	307.5	0
310	180067	307.6	0
310	180067	307.7	0
310	180067	307.8	0
310	180067	307.9	0
310	180067	308	0
310	180067	308.1	0
310	180067	308.2	0
310	180067	308.3	0
310	180067	308.4	0
310	180067	308.5	0
310	180067	308.6	0
310	180067	308.7	0
310	180067	308.8	0
310	180067	308.9	0
310	180067	309	0
310	180067	309.1	0
310	180067	309.2	0
310	180067	309.3	0
310	180067	309.4	0
310	180067	309.5	0
310	180067	309.6	0
310	180067	309.7	0
310	180067	309.8	0
310	180067	309.9	0
310	180067	310	0
310	180067	310.1	0
310	180067	310.2	0
310	180067	310.3	0
310	180067	310.4	0
310	180067	310.5	0
310	180067	310.6	0
310	180067	310.7	0
310	180067	310.8	0
310	180067	310.9	0
310	180067	311	0
310	180067	311.1	0
310	180067	311.2	0
310	180067	311.3	0
310	180067	311.4	0
310	180067	311.5	0
310	180067	311.6	0
310	180067	311.7	0
310	180067	311.8	0
310	180067	311.9	0
310	180067	312	0
310	180067	312.1	0
310	180067	312.2	0
310	180067	312.3	0
310	180067	312.4	0
310	180067	312.5	0
310	180067	312.6	0
310	180067	312.7	0
310	180067	312.8	0
310	180067	312.9	0
310	180067	313	0
310	180067	313.1	0
310	180067	313.2	0
310	180067	313.3	0
310	180067	313.4	0
310	180067	313.5	0
310	180067	313.6	0
310	180067	313.7	0
310	180067	313.8	0
310	180067	313.9	0
310	180067	314	0
310	180067	314.1	0
310	180067	314.2	0
310	180067	314.3	0
310	180067	314.4	0
310	180067	314.5	0
310	180067	314.6	0
310	180067	314.7	0
310	180067	314.8	0
310	180067	314.9	0
310	180067	315	0
310	180067	315.1	0
310	180067	315.2	0
310	180067	315.3	0
310	180067	315.4	0
310	180067	315.5	0
310	180067	315.6	0
310	180067	315.7	0
310	180067	315.8	0
310	180067	315.9	0
310	180067	316	0
310	180067	316.1	0
310	180067	316.2	0
310	180067	316.3	0
310	180067	316.4	0
310	180067	316.5	0
310	180067	316.6	0
310	180067	316.7	0
310	180067	316.8	0
310	180067	316.9	0
310	180067	317	0
310	180067	317.1	0
310	180067	317.2	0
310	180067	317.3	0
310	180067	317.4	0
310	180067	317.5	0
310	180067	317.6	0
310	180067	317.7	0
310	180067	317.8	0
310	180067	317.9	0
310	180067	318	0
310	180067	318.1	0
310	180067	318.2	0
310	180067	318.3	0
310	180067	318.4	0
310	180067	318.5	0
310	180067	318.6	0
310	180067	318.7	0
310	180067	318.8	0
310	180067	318.9	0
310	180067	319	0
310	180067	319.1	0
310	180067	319.2	0
310	180067	319.3	0
310	180067	319.4	0
310	180067	319.5	0
310	180067	319.6	0
310	180067	319.7	0
310	180067	319.8	0
310	180067	319.9	0
310	180067	320	0
310	180067	320.1	0
310	180067	320.2	0
310	180067	320.3	0
310	180067	320.4	0
310	180067	320.5	0
310	180067	320.6	0
310	180067	320.7	0
310	180067	320.8	0
310	180067	320.9	0
310	180067	321	0
310	180067	321.1	0
310	180067	321.2	0
310	180067	321.3	0
310	180067	321.4	0
310	180067	321.5	0
310	180067	321.6	0
310	180067	321.7	0
310	180067	321.8	0
310	180067	321.9	0
310	180067	322	0
310	180067	322.1	0
310	180067	322.2	0
310	180067	322.3	0
310	180067	322.4	0
310	180067	322.5	0
310	180067	322.6	0
310	180067	322.7	0
310	180067	322.8	0
310	180067	322.9	0
310	180067	323	0
310	180067	323.1	0
310	180067	323.2	0
310	180067	323.3	0
310	180067	323.4	0
310	180067	323.5	0
310	180067	323.6	0
310	180067	323.7	0
310	180067	323.8	0
310	180067	323.9	0
310	180067	324	0
310	180067	324.1	0
310	180067	324.2	0
310	180067	324.3	0
310	180067	324.4	0
310	180067	324.5	0
310	180067	324.6	0
310	180067	324.7	0
310	180067	324.8	0
310	180067	324.9	0
310	180067	325	0
310	180067	325.1	0
310	180067	325.2	0
310	180067	325.3	0
310	180067	325.4	0
310	180067	325.5	0
310	180067	325.6	0
310	180067	325.7	0
310	180067	325.8	0
310	180067	325.9	0
310	180067	326	0
310	180067	326.1	0
310	180067	326.2	0
310	180067	326.3	0
310	180067	326.4	0
310	180067	326.5	0
310	180067	326.6	0
310	180067	326.7	0
310	180067	326.8	0
310	180067	326.9	0
310	180067	327	0
310	180067	327.1	0
310	180067	327.2	0
310	180067	327.3	0
310	180067	327.4	0
310	180067	327.5	0
310	180067	327.6	0
310	180067	327.7	0
310	180067	327.8	0
310	180067	327.9	0
310	180067	328	0
310	180067	328.1	0
310	180067	328.2	0
310	180067	328.3	0
310	180067	328.4	0
310	180067	328.5	0
310	180067	328.6	0
310	180067	328.7	0
310	180067	328.8	0
310	180067	328.9	0
310	180067	329	0
310	180067	329.1	0
310	180067	329.2	0
310	180067	329.3	0
310	180067	329.4	0
310	180067	329.5	0
310	180067	329.6	0
310	180067	329.7	0
310	180067	329.8	0
310	180067	329.9	0
310	180067	330	0
310	180067	330.1	0
310	180067	330.2	0
310	180067	330.3	0
310	180067	330.4	0
310	180067	330.5	0
310	180067	330.6	0
310	180067	330.7	0
310	180067	330.8	0
310	180067	330.9	0
310	180067	331	0
310	180067	331.1	0
310	180067	331.2	0
310	180067	331.3	0
310	180067	331.4	0
310	180067	331.5	0
310	180067	331.6	0
310	180067	331.7	0
310	180067	331.8	0
310	180067	331.9	0
310	180067	332	0
310	180067	332.1	0
310	180067	332.2	0
310	180067	332.3	0
310	180067	332.4	0
310	180067	332.5	0
310	180067	332.6	0
310	180067	332.7	0
310	180067	332.8	0
310	180067	332.9	0
310	180067	333	0
310	180067	333.1	0
310	180067	333.2	0
310	180067	333.3	0
310	180067	333.4	0
310	180067	333.5	0
310	180067	333.6	0
310	180067	333.7	0
310	180067	333.8	0
310	180067	333.9	0
310	180067	334	0
310	180067	334.1	0
310	180067	334.2	0
310	180067	334.3	0
310	180067	334.4	0
310	180067	334.5	0
310	180067	334.6	0
310	180067	334.7	0
310	180067	334.8	0
310	180067	334.9	0
310	180067	335	0
310	180067	335.1	0
310	180067	335.2	0
310	180067	335.3	0
310	180067	335.4	0
310	180067	335.5	0
310	180067	335.6	0
310	180067	335.7	0
310	180067	335.8	0
310	180067	335.9	0
310	180067	336	0
310	180067	336.1	0
310	180067	336.2	0
310	180067	336.3	0
310	180067	336.4	0
310	180067	336.5	0
310	180067	336.6	0
310	180067	336.7	0
310	180067	336.8	0
310	180067	336.9	0
310	180067	337	0
310	180067	337.1	0
310	180067	337.2	0
310	180067	337.3	0
310	180067	337.4	0
310	180067	337.5	0
310	180067	337.6	0
310	180067	337.7	0
310	180067	337.8	0
310	180067	337.9	0
310	180067	338	0
310	180067	338.1	0
310	180067	338.2	0
310	180067	338.3	0
310	180067	338.4	0
310	180067	338.5	0
310	180067	338.6	0
310	180067	338.7	0
310	180067	338.8	0
310	180067	338.9	0
310	180067	339	0
310	180067	339.1	0
310	180067	339.2	0
310	180067	339.3	0
310	180067	339.4	0
310	180067	339.5	0
310	180067	339.6	0
310	180067	339.7	0
310	180067	339.8	0
310	180067	339.9	0
310	180067	340	0
310	180067	340.1	0
310	180067	340.2	0
310	180067	340.3	0
310	180067	340.4	0
310	180067	340.5	0
310	180067	340.6	0
310	180067	340.7	0
310	180067	340.8	0
310	180067	340.9	0
310	180067	341	0
310	180067	341.1	0
310	180067	341.2	0
310	180067	341.3	0
310	180067	341.4	0
310	180067	341.5	0
310	180067	341.6	0
310	180067	341.7	0
310	180067	341.8	0
310	180067	341.9	0
310	180067	342	0
310	180067	342.1	0
310	180067	342.2	0
310	180067	342.3	0
310	180067	342.4	0
310	180067	342.5	0

