version 2
run Fanet-0-20220617-18:33:33-20860
attr configname Fanet
attr datetime 20220617-18:33:33
attr experiment Fanet
attr inifile omnetpp.ini
attr iterationvars ""
attr iterationvarsf ""
attr measurement ""
attr network Fanet
attr processid 20860
attr repetition 0
attr replication #0
attr resultdir results
attr runnumber 0
attr seedset 0
param *.host[0].numApps 1
param *.host[0].app[0].typename "\"UdpBasicApp\""
param *.host[0].app[0].startTime 11s
param *.host[0].app[0].destAddresses "\"host[1]\""
param *.host[0].app[0].destPort 5000
param *.host[0].app[0].messageLength 1000B
param *.host[0].app[0].sendInterval exponential(1s)
param *.host[0].app[0].packetName "\"UDPdata\""
param *.host[1].numApps 1
param *.host[1].app[0].typename "\"UdpSink\""
param *.host[1].app[0].localPort 5000
param **.wlan[*].bitrate 24Mbps
param *.configurator.addStaticRoutes false
param **.netmaskRoutes "\"\""
param **.arp.typename "\"GlobalArp\""
param *.host*.wlan[0].typename "\"AckingWirelessInterface\""
param *.host*.wlan[0].radio.transmitter.communicationRange 400m
param *.host*.wlan[0].radio.displayCommunicationRange true
param *.visualizer.osgVisualizer.typename "\"IntegratedOsgVisualizer\""
param *.visualizer.osgVisualizer.sceneVisualizer.clearColor "\"skyblue\""
param *.visualizer.osgVisualizer.sceneVisualizer.sceneImage "\"showcases/desert\""
param *.visualizer.osgVisualizer.sceneVisualizer.sceneImageSize 5000m
param *.visualizer.osgVisualizer.sceneVisualizer.axisLength 1000m
param *.visualizer.osgVisualizer.sceneVisualizer.sceneMinX -2000m
param *.visualizer.osgVisualizer.sceneVisualizer.sceneMinY -2000m
param *.visualizer.osgVisualizer.sceneVisualizer.sceneMinZ 0m
param *.visualizer.osgVisualizer.sceneVisualizer.sceneMaxX 3000m
param *.visualizer.osgVisualizer.sceneVisualizer.sceneMaxY 3000m
param *.visualizer.osgVisualizer.sceneVisualizer.sceneMaxZ 1000m
param *.visualizer.osgVisualizer.networkNodeVisualizer.displayModuleName false
param *.visualizer.*.mobilityVisualizer.displayMobility true
param *.visualizer.*.mobilityVisualizer.displayPositions true
param *.visualizer.*.mobilityVisualizer.displayOrientations true
param *.visualizer.*.mobilityVisualizer.displayVelocities true
param *.visualizer.*.mobilityVisualizer.displayMovementTrails true
param *.visualizer.*.mobilityVisualizer.animationSpeed 1
param *.visualizer.*.packetDropVisualizer.displayPacketDrops false
param *.visualizer.*.packetDropVisualizer.labelFormat "\"%n/reason: %r\""
param *.visualizer.*.packetDropVisualizer.fadeOutTime 10s
param **.constraintAreaMinX 0m
param **.constraintAreaMinY 0m
param **.constraintAreaMinZ 40m
param **.constraintAreaMaxX 2500m
param **.constraintAreaMaxY 2000m
param **.constraintAreaMaxZ 200m
param *.visualizer.*.mediumVisualizer.signalPropagationAnimationSpeed 500/3e8
param *.visualizer.*.mediumVisualizer.signalTransmissionAnimationSpeed 50000/3e8
param *.visualizer.*.mediumVisualizer.displaySignals false
param *.visualizer.*.mediumVisualizer.displayTransmissions false
param *.visualizer.*.mediumVisualizer.displayReceptions false
param *.visualizer.*.mediumVisualizer.transmissionPlacementPriority 10
param *.visualizer.*.mediumVisualizer.receptionPlacementPriority 10
param *.visualizer.*.mediumVisualizer.displaySignals false
param *.visualizer.*.mediumVisualizer.signalFadingDistance 50m
param *.visualizer.*.mediumVisualizer.signalRingSize 50m
param *.visualizer.osgVisualizer.mediumVisualizer.signalShape "\"both\""
param *.host[*].osgModel "\"3d/drone.ive.100.scale.0,0,90.rot\""
param *.host[*].mobility.typename "\"MassMobility\""
param *.host[*].mobility.changeInterval 1s
param *.host[*].mobility.initialMovementHeading "uniform(0deg, 360deg)"
param *.host[*].mobility.initialMovementElevation "uniform(-90deg, 90deg)"
param *.host[*].mobility.angleDelta uniform(-10deg,10deg)
param *.host[*].mobility.rotationAxisAngle uniform(-10deg,10deg)
param *.host[*].mobility.speed uniform(10mps,20mps)
param *.host[*].mobility.faceForward false
param *.attacker[*].mobility.typename "\"MassMobility\""
param *.attacker[*].mobility.changeInterval 1s
param *.attacker[*].mobility.initialMovementHeading "uniform(0deg, 360deg)"
param *.attacker[*].mobility.initialMovementElevation "uniform(-90deg, 90deg)"
param *.attacker[*].mobility.angleDelta uniform(-10deg,10deg)
param *.attacker[*].mobility.rotationAxisAngle uniform(-10deg,10deg)
param *.attacker[*].mobility.speed uniform(10mps,20mps)
param *.attacker[*].mobility.faceForward false
param *.attacker*.wlan[0].typename "\"AckingWirelessInterface\""
param *.attacker*.wlan[0].radio.transmitter.communicationRange 400m
param *.attacker*.wlan[0].radio.displayCommunicationRange true

vector 0 Fanet.host[0].wlan[0].radio radioMode:vector ETV
attr interpolationmode sample-hold
attr source radioModeChanged
attr title "Radio mode, vector"
vector 1 Fanet.host[1].wlan[0].radio radioMode:vector ETV
attr interpolationmode sample-hold
attr source radioModeChanged
attr title "Radio mode, vector"
vector 2 Fanet.host[2].wlan[0].radio radioMode:vector ETV
attr interpolationmode sample-hold
attr source radioModeChanged
attr title "Radio mode, vector"
vector 3 Fanet.host[3].wlan[0].radio radioMode:vector ETV
attr interpolationmode sample-hold
attr source radioModeChanged
attr title "Radio mode, vector"
vector 4 Fanet.host[4].wlan[0].radio radioMode:vector ETV
attr interpolationmode sample-hold
attr source radioModeChanged
attr title "Radio mode, vector"
vector 5 Fanet.host[5].wlan[0].radio radioMode:vector ETV
attr interpolationmode sample-hold
attr source radioModeChanged
attr title "Radio mode, vector"
vector 6 Fanet.host[0].wlan[0].radio receptionState:vector ETV
attr interpolationmode sample-hold
attr source receptionStateChanged
attr title "Radio reception state, vector"
vector 7 Fanet.host[0].wlan[0].radio transmissionState:vector ETV
attr interpolationmode sample-hold
attr source transmissionStateChanged
attr title "Radio transmission state, vector"
vector 8 Fanet.host[1].wlan[0].radio receptionState:vector ETV
attr interpolationmode sample-hold
attr source receptionStateChanged
attr title "Radio reception state, vector"
vector 9 Fanet.host[1].wlan[0].radio transmissionState:vector ETV
attr interpolationmode sample-hold
attr source transmissionStateChanged
attr title "Radio transmission state, vector"
vector 10 Fanet.host[2].wlan[0].radio receptionState:vector ETV
attr interpolationmode sample-hold
attr source receptionStateChanged
attr title "Radio reception state, vector"
vector 11 Fanet.host[2].wlan[0].radio transmissionState:vector ETV
attr interpolationmode sample-hold
attr source transmissionStateChanged
attr title "Radio transmission state, vector"
vector 12 Fanet.host[3].wlan[0].radio receptionState:vector ETV
attr interpolationmode sample-hold
attr source receptionStateChanged
attr title "Radio reception state, vector"
vector 13 Fanet.host[3].wlan[0].radio transmissionState:vector ETV
attr interpolationmode sample-hold
attr source transmissionStateChanged
attr title "Radio transmission state, vector"
vector 14 Fanet.host[4].wlan[0].radio receptionState:vector ETV
attr interpolationmode sample-hold
attr source receptionStateChanged
attr title "Radio reception state, vector"
vector 15 Fanet.host[4].wlan[0].radio transmissionState:vector ETV
attr interpolationmode sample-hold
attr source transmissionStateChanged
attr title "Radio transmission state, vector"
vector 16 Fanet.host[5].wlan[0].radio receptionState:vector ETV
attr interpolationmode sample-hold
attr source receptionStateChanged
attr title "Radio reception state, vector"
vector 17 Fanet.host[5].wlan[0].radio transmissionState:vector ETV
attr interpolationmode sample-hold
attr source transmissionStateChanged
attr title "Radio transmission state, vector"
vector 18 Fanet.host[0].wlan[0].mac rcvdPkFromHl:vector(packetBytes) ETV
attr interpolationmode none
attr source packetReceivedFromUpper
attr title "packets received from higher layer, vector(packetBytes)"
vector 19 Fanet.host[0].wlan[0].mac.queue packetPushed:vector(packetBytes) ETV
attr interpolationmode none
attr title "packet pushed, vector(packetBytes)"
vector 20 Fanet.host[0].wlan[0].mac.queue queueLength:vector ETV
attr interpolationmode sample-hold
attr source "count(packetPushed) - count(packetPopped) - count(packetRemoved) - count(packetDropped)"
attr title "queue length, vector"
vector 21 Fanet.host[0].wlan[0].mac.queue packetPopped:vector(packetBytes) ETV
attr interpolationmode none
attr title "packet popped, vector(packetBytes)"
vector 22 Fanet.host[0].wlan[0].mac.queue queueingTime:vector ETV
attr interpolationmode none
attr source queueingTime(packetPopped)
attr title "queueing times, vector"
attr unit s
vector 23 Fanet.host[0].wlan[0].mac sentDownPk:vector(packetBytes) ETV
attr interpolationmode none
attr source packetSentToLower
attr title "packets sent to lower layer, vector(packetBytes)"
vector 24 Fanet.host[1].wlan[0].mac rcvdPkFromHl:vector(packetBytes) ETV
attr interpolationmode none
attr source packetReceivedFromUpper
attr title "packets received from higher layer, vector(packetBytes)"
vector 25 Fanet.host[1].wlan[0].mac.queue packetPushed:vector(packetBytes) ETV
attr interpolationmode none
attr title "packet pushed, vector(packetBytes)"
vector 26 Fanet.host[1].wlan[0].mac.queue queueLength:vector ETV
attr interpolationmode sample-hold
attr source "count(packetPushed) - count(packetPopped) - count(packetRemoved) - count(packetDropped)"
attr title "queue length, vector"
vector 27 Fanet.host[1].wlan[0].mac.queue packetPopped:vector(packetBytes) ETV
attr interpolationmode none
attr title "packet popped, vector(packetBytes)"
vector 28 Fanet.host[1].wlan[0].mac.queue queueingTime:vector ETV
attr interpolationmode none
attr source queueingTime(packetPopped)
attr title "queueing times, vector"
attr unit s
vector 29 Fanet.host[1].wlan[0].mac sentDownPk:vector(packetBytes) ETV
attr interpolationmode none
attr source packetSentToLower
attr title "packets sent to lower layer, vector(packetBytes)"
vector 30 Fanet.host[0].app[0] packetSent:vector(packetBytes) ETV
attr interpolationmode none
attr source packetSent
attr title "packets sent, vector(packetBytes)"
vector 31 Fanet.host[0].udp packetSent:vector(packetBytes) ETV
attr interpolationmode none
attr source packetSent
attr title "packets sent, vector(packetBytes)"
vector 32 Fanet.host[4].wlan[0].mac rcvdPkFromHl:vector(packetBytes) ETV
attr interpolationmode none
attr source packetReceivedFromUpper
attr title "packets received from higher layer, vector(packetBytes)"
vector 33 Fanet.host[4].wlan[0].mac.queue packetPushed:vector(packetBytes) ETV
attr interpolationmode none
attr title "packet pushed, vector(packetBytes)"
vector 34 Fanet.host[4].wlan[0].mac.queue queueLength:vector ETV
attr interpolationmode sample-hold
attr source "count(packetPushed) - count(packetPopped) - count(packetRemoved) - count(packetDropped)"
attr title "queue length, vector"
vector 35 Fanet.host[4].wlan[0].mac.queue packetPopped:vector(packetBytes) ETV
attr interpolationmode none
attr title "packet popped, vector(packetBytes)"
vector 36 Fanet.host[4].wlan[0].mac.queue queueingTime:vector ETV
attr interpolationmode none
attr source queueingTime(packetPopped)
attr title "queueing times, vector"
attr unit s
vector 37 Fanet.host[4].wlan[0].mac sentDownPk:vector(packetBytes) ETV
attr interpolationmode none
attr source packetSentToLower
attr title "packets sent to lower layer, vector(packetBytes)"
vector 38 Fanet.host[2].wlan[0].mac rcvdPkFromHl:vector(packetBytes) ETV
attr interpolationmode none
attr source packetReceivedFromUpper
attr title "packets received from higher layer, vector(packetBytes)"
vector 39 Fanet.host[2].wlan[0].mac.queue packetPushed:vector(packetBytes) ETV
attr interpolationmode none
attr title "packet pushed, vector(packetBytes)"
vector 40 Fanet.host[2].wlan[0].mac.queue queueLength:vector ETV
attr interpolationmode sample-hold
attr source "count(packetPushed) - count(packetPopped) - count(packetRemoved) - count(packetDropped)"
attr title "queue length, vector"
vector 41 Fanet.host[2].wlan[0].mac.queue packetPopped:vector(packetBytes) ETV
attr interpolationmode none
attr title "packet popped, vector(packetBytes)"
vector 42 Fanet.host[2].wlan[0].mac.queue queueingTime:vector ETV
attr interpolationmode none
attr source queueingTime(packetPopped)
attr title "queueing times, vector"
attr unit s
vector 43 Fanet.host[2].wlan[0].mac sentDownPk:vector(packetBytes) ETV
attr interpolationmode none
attr source packetSentToLower
attr title "packets sent to lower layer, vector(packetBytes)"
vector 44 Fanet.host[3].wlan[0].mac rcvdPkFromLl:vector(packetBytes) ETV
attr interpolationmode none
attr source packetReceivedFromLower
attr title "packets received from lower layer, vector(packetBytes)"
vector 45 Fanet.host[3].wlan[0].mac passedUpPk:vector(packetBytes) ETV
attr interpolationmode none
attr source packetSentToUpper
attr title "packets passed to higher layer, vector(packetBytes)"
vector 46 Fanet.host[3].wlan[0].mac rcvdPkFromHl:vector(packetBytes) ETV
attr interpolationmode none
attr source packetReceivedFromUpper
attr title "packets received from higher layer, vector(packetBytes)"
vector 47 Fanet.host[3].wlan[0].mac.queue packetPushed:vector(packetBytes) ETV
attr interpolationmode none
attr title "packet pushed, vector(packetBytes)"
vector 48 Fanet.host[3].wlan[0].mac.queue queueLength:vector ETV
attr interpolationmode sample-hold
attr source "count(packetPushed) - count(packetPopped) - count(packetRemoved) - count(packetDropped)"
attr title "queue length, vector"
vector 49 Fanet.host[3].wlan[0].mac.queue packetPopped:vector(packetBytes) ETV
attr interpolationmode none
attr title "packet popped, vector(packetBytes)"
vector 50 Fanet.host[3].wlan[0].mac.queue queueingTime:vector ETV
attr interpolationmode none
attr source queueingTime(packetPopped)
attr title "queueing times, vector"
attr unit s
vector 51 Fanet.host[3].wlan[0].mac sentDownPk:vector(packetBytes) ETV
attr interpolationmode none
attr source packetSentToLower
attr title "packets sent to lower layer, vector(packetBytes)"
vector 52 Fanet.host[2].wlan[0].mac rcvdPkFromLl:vector(packetBytes) ETV
attr interpolationmode none
attr source packetReceivedFromLower
attr title "packets received from lower layer, vector(packetBytes)"
vector 53 Fanet.host[2].wlan[0].mac passedUpPk:vector(packetBytes) ETV
attr interpolationmode none
attr source packetSentToUpper
attr title "packets passed to higher layer, vector(packetBytes)"
vector 54 Fanet.host[5].wlan[0].mac rcvdPkFromHl:vector(packetBytes) ETV
attr interpolationmode none
attr source packetReceivedFromUpper
attr title "packets received from higher layer, vector(packetBytes)"
vector 55 Fanet.host[5].wlan[0].mac.queue packetPushed:vector(packetBytes) ETV
attr interpolationmode none
attr title "packet pushed, vector(packetBytes)"
vector 56 Fanet.host[5].wlan[0].mac.queue queueLength:vector ETV
attr interpolationmode sample-hold
attr source "count(packetPushed) - count(packetPopped) - count(packetRemoved) - count(packetDropped)"
attr title "queue length, vector"
vector 57 Fanet.host[5].wlan[0].mac.queue packetPopped:vector(packetBytes) ETV
attr interpolationmode none
attr title "packet popped, vector(packetBytes)"
vector 58 Fanet.host[5].wlan[0].mac.queue queueingTime:vector ETV
attr interpolationmode none
attr source queueingTime(packetPopped)
attr title "queueing times, vector"
attr unit s
vector 59 Fanet.host[5].wlan[0].mac sentDownPk:vector(packetBytes) ETV
attr interpolationmode none
attr source packetSentToLower
attr title "packets sent to lower layer, vector(packetBytes)"
vector 60 Fanet.host[0].wlan[0].mac rcvdPkFromLl:vector(packetBytes) ETV
attr interpolationmode none
attr source packetReceivedFromLower
attr title "packets received from lower layer, vector(packetBytes)"
vector 61 Fanet.host[0].wlan[0].mac passedUpPk:vector(packetBytes) ETV
attr interpolationmode none
attr source packetSentToUpper
attr title "packets passed to higher layer, vector(packetBytes)"
vector 62 Fanet.host[0].wlan[0].mac packetDropNotAddressedToUs:vector(packetBytes) ETV
attr interpolationmode none
attr source packetDropReasonIsNotAddressedToUs(packetDropped)
attr title "packet drop: not addressed to us, vector(packetBytes)"
vector 63 Fanet.host[2].wlan[0].mac packetDropNotAddressedToUs:vector(packetBytes) ETV
attr interpolationmode none
attr source packetDropReasonIsNotAddressedToUs(packetDropped)
attr title "packet drop: not addressed to us, vector(packetBytes)"
vector 64 Fanet.host[0].ipv4.ip packetDropHopLimitReached:vector(packetBytes) ETV
attr interpolationmode none
attr source packetDropReasonIsHopLimitReached(packetDropped)
attr title "packet drop: hop limit reached, vector(packetBytes)"
vector 65 Fanet.host[0].lo[0].lo rcvdPkFromHl:vector(packetBytes) ETV
attr interpolationmode none
attr source packetReceivedFromUpper
attr title "packets received from higher layer, vector(packetBytes)"
vector 66 Fanet.host[0].lo[0].lo passedUpPk:vector(packetBytes) ETV
attr interpolationmode none
attr source packetSentToUpper
attr title "packets passed to higher layer, vector(packetBytes)"
vector 67 Fanet.host[3].ipv4.ip packetDropHopLimitReached:vector(packetBytes) ETV
attr interpolationmode none
attr source packetDropReasonIsHopLimitReached(packetDropped)
attr title "packet drop: hop limit reached, vector(packetBytes)"
vector 68 Fanet.host[3].wlan[0].mac packetDropNotAddressedToUs:vector(packetBytes) ETV
attr interpolationmode none
attr source packetDropReasonIsNotAddressedToUs(packetDropped)
attr title "packet drop: not addressed to us, vector(packetBytes)"
vector 69 Fanet.host[1].wlan[0].mac rcvdPkFromLl:vector(packetBytes) ETV
attr interpolationmode none
attr source packetReceivedFromLower
attr title "packets received from lower layer, vector(packetBytes)"
vector 70 Fanet.host[1].wlan[0].mac packetDropNotAddressedToUs:vector(packetBytes) ETV
attr interpolationmode none
attr source packetDropReasonIsNotAddressedToUs(packetDropped)
attr title "packet drop: not addressed to us, vector(packetBytes)"
vector 71 Fanet.host[1].wlan[0].mac passedUpPk:vector(packetBytes) ETV
attr interpolationmode none
attr source packetSentToUpper
attr title "packets passed to higher layer, vector(packetBytes)"
vector 72 Fanet.host[1].udp packetReceived:vector(packetBytes) ETV
attr interpolationmode none
attr source packetReceived
attr title "packets received, vector(packetBytes)"
vector 73 Fanet.host[1].udp passedUpPk:vector(count) ETV
attr interpolationmode none
attr source packetSentToUpper
attr title "packets passed up, vector(count)"
vector 74 Fanet.host[1].app[0] packetReceived:vector(packetBytes) ETV
attr interpolationmode none
attr source packetReceived
attr title "packets received, vector(packetBytes)"
vector 75 Fanet.host[1].app[0] throughput:vector ETV
attr source throughput(packetReceived)
attr title "throughput, vector"
attr unit bps
vector 76 Fanet.host[1].app[0] endToEndDelay:vector ETV
attr interpolationmode none
attr source dataAge(packetReceived)
attr title "end-to-end delay, vector"
attr unit s
vector 77 Fanet.host[1].app[0] rcvdPkSeqNo:vector ETV
attr interpolationmode none
attr source appPkSeqNo(packetReceived)
attr title "received packet sequence number, vector"
vector 78 Fanet.host[4].wlan[0].mac rcvdPkFromLl:vector(packetBytes) ETV
attr interpolationmode none
attr source packetReceivedFromLower
attr title "packets received from lower layer, vector(packetBytes)"
vector 79 Fanet.host[4].wlan[0].mac passedUpPk:vector(packetBytes) ETV
attr interpolationmode none
attr source packetSentToUpper
attr title "packets passed to higher layer, vector(packetBytes)"
vector 80 Fanet.host[4].wlan[0].mac packetDropNotAddressedToUs:vector(packetBytes) ETV
attr interpolationmode none
attr source packetDropReasonIsNotAddressedToUs(packetDropped)
attr title "packet drop: not addressed to us, vector(packetBytes)"
vector 81 Fanet.host[0].app[0] throughput:vector ETV
attr source throughput(packetReceived)
attr title "throughput, vector"
attr unit bps
0	0	0	0
0	0	0	0
0	0	0	4
1	0	0	0
1	0	0	0
1	0	0	4
2	0	0	0
2	0	0	0
2	0	0	4
3	0	0	0
3	0	0	0
3	0	0	4
4	0	0	0
4	0	0	0
4	0	0	4
5	0	0	0
5	0	0	0
5	0	0	4
6	0	0	1
6	2673	38.148704389696	3
6	2682	38.148727056363	1
6	2726	38.482957133022	3
6	2740	38.483322466355	1
6	2757	38.483689035618	3
6	2767	38.484054368951	1
6	2788	38.484422270021	3
6	2802	38.484787603354	1
6	2819	38.485154172533	3
6	2829	38.485519505866	1
6	2850	38.485887406992	3
6	2864	38.486252740325	1
6	2881	38.48661930942	3
6	2891	38.486984642753	1
6	2912	38.487352543935	3
6	2926	38.487717877268	1
6	2943	38.488084446279	3
6	2953	38.488449779612	1
6	2974	38.488817680848	3
6	2988	38.489183014181	1
6	3005	38.489549583109	3
6	3015	38.489914916442	1
6	3036	38.490282817734	3
6	3050	38.490648151067	1
6	3067	38.491014719911	3
6	3077	38.491380053244	1
6	3098	38.491747954592	3
6	3112	38.492113287925	1
6	3129	38.492479856686	3
6	3139	38.492845190019	1
6	3161	38.493213091422	3
6	3176	38.493578424755	1
6	3194	38.493944993432	3
6	3205	38.494310326765	1
6	3426	40.809308220154	3
6	3440	40.809673553487	1
6	3457	40.810040036594	3
6	3467	40.810405369927	1
6	3488	40.8107732964	3
6	3502	40.811138629733	1
6	3519	40.81150511281	3
6	3529	40.811870446143	1
6	3550	40.812238372634	3
6	3564	40.812603705967	1
6	3581	40.812970189015	3
6	3591	40.813335522348	1
6	3612	40.813703448857	3
6	3626	40.81406878219	1
6	3643	40.814435265209	3
6	3653	40.814800598542	1
6	3674	40.815168525069	3
6	3688	40.815533858402	1
6	3705	40.815900341391	3
6	3715	40.816265674724	1
6	3736	40.816633601269	3
6	3750	40.816998934602	1
6	3767	40.817365417561	3
6	3777	40.817730750894	1
6	3798	40.818098677457	3
6	3812	40.81846401079	1
6	3829	40.81883049372	3
6	3839	40.819195827053	1
6	3861	40.819563753634	3
6	3876	40.819929086967	1
6	3894	40.820295569868	3
6	3905	40.820660903201	1
6	3963	40.871423511389	3
6	3977	40.871788844722	1
6	3994	40.872155326595	3
6	4004	40.872520659928	1
6	4025	40.872888587169	3
6	4039	40.873253920502	1
6	4056	40.873620402346	3
6	4066	40.873985735679	1
6	4087	40.874353662938	3
6	4101	40.874718996271	1
6	4118	40.875085478088	3
6	4128	40.875450811421	1
6	4149	40.875818738698	3
6	4163	40.876184072031	1
6	4180	40.876550553819	3
6	4190	40.876915887152	1
6	4211	40.877283814447	3
6	4225	40.87764914778	1
6	4242	40.87801562954	3
6	4252	40.878380962873	1
6	4273	40.878748890186	3
6	4287	40.879114223519	1
6	4304	40.87948070525	3
6	4314	40.879846038583	1
6	4335	40.880213965914	3
6	4349	40.880579299247	1
6	4366	40.880945780949	3
6	4376	40.881311114282	1
6	4398	40.881679041632	3
6	4413	40.882044374965	1
6	4431	40.882410856638	3
6	4442	40.882776189971	1
6	4582	41.970335965508	3
6	4596	41.970701298841	1
6	4613	41.971067625695	3
6	4623	41.971432959028	1
6	4644	41.971800872807	3
6	4658	41.97216620614	1
6	4675	41.972532532766	3
6	4685	41.972897866099	1
6	4706	41.973265779865	3
6	4720	41.973631113198	1
6	4737	41.973997439597	3
6	4747	41.97436277293	1
6	4768	41.974730686683	3
6	4782	41.975096020016	1
6	4799	41.975462346188	3
6	4809	41.975827679521	1
6	4830	41.976195593261	3
6	4844	41.976560926594	1
6	4861	41.97692725254	3
6	4871	41.977292585873	1
6	4892	41.9776604996	3
6	4906	41.978025832933	1
6	4923	41.978392158651	3
6	4933	41.978757491984	1
6	4954	41.979125405699	3
6	4968	41.979490739032	1
6	4985	41.979857064524	3
6	4995	41.980222397857	1
6	5017	41.980590311559	3
6	5032	41.980955644892	1
6	5050	41.981321970157	3
6	5061	41.98168730349	1
6	5131	42.157762031985	3
6	5145	42.158127365318	1
6	5162	42.158493665825	3
6	5172	42.158858999158	1
6	5193	42.159226913416	3
6	5207	42.159592246749	1
6	5224	42.159958547055	3
6	5234	42.160323880388	1
6	5255	42.160691794654	3
6	5269	42.161057127987	1
6	5286	42.161423428093	3
6	5296	42.161788761426	1
6	5317	42.162156675702	3
6	5331	42.162522009035	1
6	5348	42.162888308939	3
6	5358	42.163253642272	1
6	5379	42.163621556556	3
6	5393	42.163986889889	1
6	5410	42.164353189591	3
6	5420	42.164718522924	1
6	5441	42.165086437217	3
6	5455	42.16545177055	1
6	5472	42.165818070052	3
6	5482	42.166183403385	1
6	5503	42.166551317687	3
6	5517	42.16691665102	1
6	5534	42.16728295032	3
6	5544	42.167648283653	1
6	5566	42.168016197963	3
6	5581	42.168381531296	1
6	5599	42.168747830397	3
6	5610	42.16911316373	1
6	5698	42.601166064909	3
6	5712	42.601531398242	1
6	5729	42.601897638766	3
6	5739	42.602262972099	1
6	5760	42.602630890672	3
6	5774	42.602996224005	1
6	5791	42.603362464334	3
6	5801	42.603727797667	1
6	5822	42.604095716259	3
6	5836	42.604461049592	1
6	5853	42.604827289726	3
6	5863	42.605192623059	1
6	5884	42.605560541671	3
6	5898	42.605925875004	1
6	5915	42.606292114943	3
6	5925	42.606657448276	1
6	5946	42.607025366908	3
6	5960	42.607390700241	1
6	5977	42.607756939985	3
6	5987	42.608122273318	1
6	6008	42.60849019197	3
6	6022	42.608855525303	1
6	6039	42.609221764852	3
6	6049	42.609587098185	1
6	6070	42.609955016857	3
6	6084	42.61032035019	1
6	6101	42.610686589544	3
6	6111	42.611051922877	1
6	6133	42.611419841569	3
6	6148	42.611785174902	1
6	6166	42.612151414061	3
6	6177	42.612516747394	1
6	6329	43.990208803067	3
6	6343	43.9905741364	1
6	6360	43.990940197074	3
6	6370	43.991305530407	1
6	6391	43.991673497399	3
6	6405	43.992038830732	1
6	6422	43.992404891224	3
6	6432	43.992770224557	1
6	6453	43.993138191621	3
6	6467	43.993503524954	1
6	6484	43.993869585265	3
6	6494	43.994234918598	1
6	6515	43.994602885734	3
6	6529	43.994968219067	1
6	6546	43.995334279197	3
6	6556	43.99569961253	1
6	6577	43.996067579738	3
6	6591	43.996432913071	1
6	6608	43.996798973019	3
6	6618	43.997164306352	1
6	6639	43.997532273632	3
6	6653	43.997897606965	1
6	6670	43.998263666731	3
6	6680	43.998629000064	1
6	6701	43.998996967414	3
6	6715	43.999362300747	1
6	6732	43.999728360333	3
6	6748	44.000093693666	1
6	6770	44.000461661084	3
6	6785	44.000826994417	1
6	6803	44.001193053807	3
6	6814	44.00155838714	1
6	6896	44.442310878698	3
6	6910	44.442676212031	1
6	6927	44.443042212601	3
6	6937	44.443407545934	1
6	6958	44.443775528312	3
6	6972	44.444140861645	1
6	6989	44.444506862023	3
6	6999	44.444872195356	1
6	7020	44.445240177787	3
6	7034	44.44560551112	1
6	7051	44.445971511308	3
6	7061	44.446336844641	1
6	7082	44.446704827124	3
6	7096	44.447070160457	1
6	7113	44.447436160453	3
6	7123	44.447801493786	1
6	7144	44.448169476321	3
6	7158	44.448534809654	1
6	7175	44.44890080946	3
6	7185	44.449266142793	1
6	7206	44.44963412538	3
6	7220	44.449999458713	1
6	7237	44.450365458327	3
6	7247	44.45073079166	1
6	7268	44.4510987743	3
6	7282	44.451464107633	1
6	7299	44.451830107057	3
6	7309	44.45219544039	1
6	7331	44.452563423082	3
6	7346	44.452928756415	1
6	7364	44.453294755647	3
6	7375	44.45366008898	1
6	8970	62.193327577588	3
6	8979	62.193350244255	1
6	9199	64.865213820152	3
6	9207	64.865579153485	1
6	9229	64.865946476625	3
6	9238	64.866311809958	1
6	9260	64.866679133178	3
6	9269	64.867044466511	1
6	9291	64.867411789812	3
6	9300	64.867777123145	1
6	9322	64.868144446527	3
6	9331	64.86850977986	1
6	9353	64.868877103322	3
6	9362	64.869242436655	1
6	9384	64.869609760197	3
6	9393	64.86997509353	1
6	9415	64.870342417153	3
6	9424	64.870707750486	1
6	9446	64.87107507419	3
6	9455	64.871440407523	1
6	9477	64.871807731307	3
6	9486	64.87217306464	1
6	9508	64.872540388504	3
6	9517	64.872905721837	1
6	9539	64.873273045782	3
6	9548	64.873638379115	1
6	9570	64.874005703141	3
6	9579	64.874371036474	1
6	9601	64.87473836058	3
6	9610	64.875103693913	1
6	9633	64.8754710181	3
6	9643	64.875836351433	1
6	9666	64.876203675701	3
6	9676	64.876569009034	1
6	9783	65.465160622852	3
6	9791	65.465525956185	1
6	9813	65.465893335104	3
6	9822	65.466258668437	1
6	9844	65.466626047421	3
6	9853	65.466991380754	1
6	9875	65.467358759803	3
6	9884	65.467724093136	1
6	9906	65.468091472252	3
6	9915	65.468456805585	1
6	9937	65.468824184765	3
6	9946	65.469189518098	1
6	9968	65.469556897343	3
6	9977	65.469922230676	1
6	9999	65.470289609987	3
6	10008	65.47065494332	1
6	10030	65.471022322696	3
6	10039	65.471387656029	1
6	10061	65.471755035472	3
6	10070	65.472120368805	1
6	10092	65.472487748312	3
6	10101	65.472853081645	1
6	10123	65.473220461218	3
6	10132	65.473585794551	1
6	10154	65.473953174189	3
6	10163	65.474318507522	1
6	10185	65.474685887225	3
6	10194	65.475051220558	1
6	10217	65.475418600328	3
6	10227	65.475783933661	1
6	10250	65.476151313495	3
6	10260	65.476516646828	1
6	10324	65.485350748143	3
6	10334	65.485716081476	1
6	10369	65.57688402414	3
6	10378	65.577249357473	1
6	10400	65.577616746391	3
6	10409	65.577982079724	1
6	10431	65.578349468708	3
6	10440	65.578714802041	1
6	10462	65.579082191091	3
6	10471	65.579447524424	1
6	10493	65.57981491354	3
6	10502	65.580180246873	1
6	10524	65.580547636054	3
6	10533	65.580912969387	1
6	10555	65.581280358634	3
6	10564	65.581645691967	1
6	10586	65.582013081281	3
6	10595	65.582378414614	1
6	10617	65.582745803993	3
6	10626	65.583111137326	1
6	10648	65.583478526771	3
6	10657	65.583843860104	1
6	10679	65.584211249614	3
6	10688	65.584576582947	1
6	10710	65.584943972524	3
6	10719	65.585309305857	1
6	10741	65.585676695499	3
6	10750	65.586042028832	1
6	10772	65.58640941854	3
6	10781	65.586774751873	1
6	10804	65.587142141647	3
6	10814	65.58750747498	1
6	10913	66.068229056406	3
6	10923	66.068594389739	1
6	10945	66.068961816366	3
6	10954	66.069327149699	1
6	10976	66.069694576375	3
6	10985	66.070059909708	1
6	11007	66.070427336429	3
6	11016	66.070792669762	1
6	11038	66.071160096531	3
6	11047	66.071525429864	1
6	11069	66.07189285668	3
6	11078	66.072258190013	1
6	11100	66.072625616875	3
6	11109	66.072990950208	1
6	11131	66.073358377118	3
6	11140	66.073723710451	1
6	11162	66.074091137406	3
6	11171	66.074456470739	1
6	11193	66.074823897743	3
6	11202	66.075189231076	1
6	11224	66.075556658126	3
6	11233	66.075921991459	1
6	11255	66.076289418556	3
6	11264	66.076654751889	1
6	11286	66.077022179033	3
6	11295	66.077387512366	1
6	11317	66.077754939556	3
6	11326	66.078120272889	1
6	11349	66.078487700127	3
6	11359	66.07885303346	1
6	11382	66.079220460745	3
6	11392	66.079585794078	1
6	11695	69.959798682575	3
6	11705	69.960164015908	1
6	11727	69.960531824908	3
6	11736	69.960897158241	1
6	11810	70.405218079003	3
6	11820	70.405583412336	1
6	11842	70.405951289197	3
6	11851	70.40631662253	1
6	11885	70.531606696645	3
6	11895	70.531972029978	1
6	11917	70.532339926662	3
6	11926	70.532705259995	1
6	11978	70.91430758942	3
6	11988	70.914672922753	1
6	12010	70.915040879798	3
6	12019	70.915406213131	1
6	12077	71.449191902141	3
6	12087	71.449557235474	1
6	12138	71.549191896593	3
6	12144	71.549557229926	1
6	12199	72.289570678104	3
6	12205	72.289593344771	1
6	12254	72.694678685262	3
6	12264	72.695044018595	1
6	12313	73.003093489869	3
6	12323	73.003458823202	1
6	12390	73.743852348598	3
6	12400	73.744217681931	1
6	12435	73.843852343058	3
6	12441	73.844217676391	1
6	12536	74.700398236496	3
6	12546	74.700763569829	1
6	12589	75.025738642469	3
6	12599	75.026103975802	1
6	12635	75.125738638083	3
6	12641	75.126103971416	1
6	12786	76.88246693101	3
6	12796	76.882832264343	1
6	12899	78.142400746279	3
6	12910	78.142766079612	1
6	12985	78.484054928103	3
6	12996	78.484420261436	1
6	13075	79.36718402625	3
6	13086	79.367549359583	1
6	13111	79.387496486662	3
6	13122	79.387861819995	1
6	13271	81.153237764176	3
6	13282	81.153603097509	1
6	13320	81.311579292821	3
6	13331	81.311944626154	1
6	13427	82.154662445768	3
6	13438	82.155027779101	1
6	13452	82.194748692219	3
6	13458	82.194771358886	1
6	13522	82.955585247381	3
6	13528	82.955607914048	1
6	14175	90.079512889892	3
6	14184	90.079535556559	1
6	14795	97.577471509407	3
6	14804	97.577494176074	1
6	15531	104.865222013819	3
6	15537	104.865244680486	1
6	16448	114.15290884792	3
6	16454	114.152931514587	1
6	16944	120.155177614525	3
6	16950	120.155200281192	1
6	18177	133.836438524871	3
6	18183	133.836461191538	1
6	18801	140.376131346456	3
6	18807	140.376154013123	1
6	19764	151.458659848737	3
6	19770	151.458682515404	1
6	20564	159.578109508633	3
6	20570	159.5781321753	1
6	21470	170.003097374649	3
6	21476	170.003120041316	1
6	22163	178.203269055497	3
6	22169	178.203291722164	1
6	22250	179.116779506804	3
6	22259	179.117144840137	1
6	22351	180.279892821568	3
6	22360	180.280258154901	1
6	22404	180.522611314691	3
6	22413	180.522976648024	1
6	22648	183.467091669619	3
6	22657	183.467457002952	1
6	22717	183.760043146422	3
6	22726	183.760408479755	1
6	22963	186.917138873259	3
6	22971	186.917504206592	1
6	22999	186.943136620256	3
6	23007	186.943501953589	1
6	23047	187.175661657815	3
6	23055	187.176026991148	1
6	23078	187.176394544667	3
6	23086	187.176759878	1
6	23109	187.177127431583	3
6	23117	187.177492764916	1
6	23140	187.177860318561	3
6	23148	187.178225651894	1
6	23171	187.178593205603	3
6	23179	187.178958538936	1
6	23202	187.179326092709	3
6	23210	187.179691426042	1
6	23233	187.180058979879	3
6	23241	187.180424313212	1
6	23264	187.180791867113	3
6	23272	187.181157200446	1
6	23295	187.181524754411	3
6	23303	187.181890087744	1
6	23326	187.182257641773	3
6	23334	187.182622975106	1
6	23357	187.182990529198	3
6	23365	187.183355862531	1
6	23388	187.183723416686	3
6	23396	187.184088750019	1
6	23419	187.184456304238	3
6	23427	187.184821637571	1
6	23450	187.185189191854	3
6	23458	187.185554525187	1
6	23482	187.185922079534	3
6	23491	187.186287412867	1
6	23515	187.186654967278	3
6	23524	187.187020300611	1
6	23621	187.728500077004	3
6	23629	187.728865410337	1
6	23652	187.729233012394	3
6	23660	187.729598345727	1
6	23683	187.729965947849	3
6	23691	187.730331281182	1
6	23714	187.730698883369	3
6	23722	187.731064216702	1
6	23745	187.731431818954	3
6	23753	187.731797152287	1
6	23776	187.732164754604	3
6	23784	187.732530087937	1
6	23807	187.732897690319	3
6	23815	187.733263023652	1
6	23838	187.733630626099	3
6	23846	187.733995959432	1
6	23869	187.734363561944	3
6	23877	187.734728895277	1
6	23900	187.735096497854	3
6	23908	187.735461831187	1
6	23931	187.735829433828	3
6	23939	187.736194767161	1
6	23962	187.736562369868	3
6	23970	187.736927703201	1
6	23993	187.737295305972	3
6	24001	187.737660639305	1
6	24024	187.738028242142	3
6	24032	187.738393575475	1
6	24056	187.738761178376	3
6	24065	187.739126511709	1
6	24089	187.739494114676	3
6	24098	187.739859448009	1
6	24182	188.197176589374	3
6	24190	188.197541922707	1
6	24213	188.197909561138	3
6	24221	188.198274894471	1
6	24244	188.198642532948	3
6	24252	188.199007866281	1
6	24275	188.199375504803	3
6	24283	188.199740838136	1
6	24312	188.200108476704	3
6	24320	188.200473810037	1
6	24343	188.200841448651	3
6	24351	188.201206781984	1
6	24374	188.201574420644	3
6	24382	188.201939753977	1
6	24405	188.202307392682	3
6	24413	188.202672726015	1
6	24436	188.203040364766	3
6	24444	188.203405698099	1
6	24467	188.203773336896	3
6	24475	188.204138670229	1
6	24498	188.204506309071	3
6	24506	188.204871642404	1
6	24529	188.205239281292	3
6	24537	188.205604614625	1
6	24560	188.205972253559	3
6	24568	188.206337586892	1
6	24591	188.206705225872	3
6	24599	188.207070559205	1
6	24623	188.207438198231	3
6	24632	188.207803531564	1
6	24656	188.208171170635	3
6	24665	188.208536503968	1
6	24777	188.820005938825	3
6	24785	188.820371272158	1
6	24808	188.820738950277	3
6	24816	188.82110428361	1
6	24839	188.821471961777	3
6	24847	188.82183729511	1
6	24870	188.822204973325	3
6	24878	188.822570306658	1
6	24901	188.82293798492	3
6	24909	188.823303318253	1
6	24932	188.823670996562	3
6	24940	188.824036329895	1
6	24963	188.824404008252	3
6	24971	188.824769341585	1
6	24994	188.82513701999	3
6	25002	188.825502353323	1
6	25025	188.825870031776	3
6	25033	188.826235365109	1
6	25056	188.82660304361	3
6	25064	188.826968376943	1
6	25087	188.827336055491	3
6	25095	188.827701388824	1
6	25118	188.828069067419	3
6	25126	188.828434400752	1
6	25149	188.828802079395	3
6	25157	188.829167412728	1
6	25180	188.829535091419	3
6	25188	188.829900424752	1
6	25212	188.830268103491	3
6	25221	188.830633436824	1
6	25245	188.831001115611	3
6	25254	188.831366448944	1
6	25326	189.026363945751	3
6	25334	189.026729279084	1
6	25458	190.674440217564	3
6	25466	190.674805550897	1
6	25610	192.049120270298	3
6	25618	192.049485603631	1
6	25664	192.373319406682	3
6	25672	192.373684740015	1
6	25712	192.565580861224	3
6	25720	192.565946194557	1
6	25745	192.731185996048	3
6	25751	192.731208662715	1
6	26002	195.101987991588	3
6	26008	195.102010658255	1
6	26036	195.160817161511	3
6	26044	195.161182494844	1
6	26287	197.981452873076	3
6	26295	197.981818206409	1
6	26422	199.362415798717	3
6	26430	199.36278113205	1
6	26549	200.864515200447	3
6	26555	200.864537867114	1
6	26834	203.658114950328	3
6	26840	203.658137616995	1
6	27243	208.039019825771	3
6	27249	208.039042492438	1
6	27529	211.579590039256	3
6	27535	211.579612705923	1
6	28363	221.369400469949	3
6	28369	221.369423136616	1
6	28495	222.443691726473	3
6	28501	222.44371439314	1
6	29497	233.52501219419	3
6	29506	233.525034860857	1
6	29779	236.186572156967	3
6	29788	236.186594823634	1
6	30238	241.503430771452	3
6	30247	241.503453438119	1
6	33230	274.492262061529	3
6	33236	274.492284728196	1
6	34339	285.947964398545	3
6	34345	285.947987065212	1
6	34496	287.494086494058	3
6	34506	287.494451827391	1
6	34628	288.753727688289	3
6	34638	288.754093021622	1
6	34723	289.764496887434	3
6	34733	289.764862220767	1
6	34776	290.038960421373	3
6	34786	290.039325754706	1
6	34823	290.213955474709	3
6	34833	290.214320808042	1
6	34954	291.805511634944	3
6	34964	291.805876968277	1
6	35229	295.003766777864	3
6	35239	295.004132111197	1
6	35421	297.848214787929	3
6	35427	297.848237454596	1
6	35464	298.076842117069	3
6	35474	298.077207450402	1
6	46568	439.408207504817	3
6	46574	439.408230171484	1
6	47609	449.854681200521	3
6	47615	449.854703867188	1
7	0	0	1
7	631	10.488135023043	2
7	637	10.48815768971	1
7	1419	20.936966796872	2
7	1425	20.936989463539	1
7	1901	27.340474571102	2
7	1907	27.340497237769	1
7	2712	38.482589232006	2
7	2718	38.482954565339	1
7	2771	38.484054368951	2
7	2780	38.484419702284	1
7	2833	38.485519505866	2
7	2842	38.485884839199	1
7	2895	38.486984642753	2
7	2904	38.487349976086	1
7	2957	38.488449779612	2
7	2966	38.488815112945	1
7	3019	38.489914916442	2
7	3028	38.490280249775	1
7	3081	38.491380053244	2
7	3090	38.491745386577	1
7	3143	38.492845190019	2
7	3153	38.493210523352	1
7	3266	38.739684741013	2
7	3272	38.73970740768	1
7	3412	40.8089402937	2
7	3418	40.809305627033	1
7	3471	40.810405369927	2
7	3480	40.81077070326	1
7	3533	40.811870446143	2
7	3542	40.812235779476	1
7	3595	40.813335522348	2
7	3604	40.813700855681	1
7	3657	40.814800598542	2
7	3666	40.815165931875	1
7	3719	40.816265674724	2
7	3728	40.816631008057	1
7	3781	40.817730750894	2
7	3790	40.818096084227	1
7	3843	40.819195827053	2
7	3853	40.819561160386	1
7	3949	40.871055584166	2
7	3955	40.871420917499	1
7	4008	40.872520659928	2
7	4017	40.872885993261	1
7	4070	40.873985735679	2
7	4079	40.874351069012	1
7	4132	40.875450811421	2
7	4141	40.875816144754	1
7	4194	40.876915887152	2
7	4203	40.877281220485	1
7	4256	40.878380962873	2
7	4265	40.878746296206	1
7	4318	40.879846038583	2
7	4327	40.880211371916	1
7	4380	40.881311114282	2
7	4390	40.881676447615	1
7	4568	41.969968051717	2
7	4574	41.97033338505	1
7	4627	41.971432959028	2
7	4636	41.971798292361	1
7	4689	41.972897866099	2
7	4698	41.973263199432	1
7	4751	41.97436277293	2
7	4760	41.974728106263	1
7	4813	41.975827679521	2
7	4822	41.976193012854	1
7	4875	41.977292585873	2
7	4884	41.977657919206	1
7	4937	41.978757491984	2
7	4946	41.979122825317	1
7	4999	41.980222397857	2
7	5009	41.98058773119	1
7	5117	42.157394117735	2
7	5123	42.157759451068	1
7	5176	42.158858999158	2
7	5185	42.159224332491	1
7	5238	42.160323880388	2
7	5247	42.160689213721	1
7	5300	42.161788761426	2
7	5309	42.162154094759	1
7	5362	42.163253642272	2
7	5371	42.163618975605	1
7	5424	42.164718522924	2
7	5433	42.165083856257	1
7	5486	42.166183403385	2
7	5495	42.166548736718	1
7	5548	42.167648283653	2
7	5558	42.168013616986	1
7	5684	42.600798146356	2
7	5690	42.601163479689	1
7	5743	42.602262972099	2
7	5752	42.602628305432	1
7	5805	42.603727797667	2
7	5814	42.604093131	1
7	5867	42.605192623059	2
7	5876	42.605557956392	1
7	5929	42.606657448276	2
7	5938	42.607022781609	1
7	5991	42.608122273318	2
7	6000	42.608487606651	1
7	6053	42.609587098185	2
7	6062	42.609952431518	1
7	6115	42.611051922877	2
7	6125	42.61141725621	1
7	6315	43.989840836147	2
7	6321	43.99020616948	1
7	6374	43.991305530407	2
7	6383	43.99167086374	1
7	6436	43.992770224557	2
7	6445	43.99313555789	1
7	6498	43.994234918598	2
7	6507	43.994600251931	1
7	6560	43.99569961253	2
7	6569	43.996064945863	1
7	6622	43.997164306352	2
7	6631	43.997529639685	1
7	6684	43.998629000064	2
7	6693	43.998994333397	1
7	6752	44.000093693666	2
7	6762	44.000459026999	1
7	6882	44.441942896372	2
7	6888	44.442308229705	1
7	6941	44.443407545934	2
7	6950	44.443772879267	1
7	7003	44.444872195356	2
7	7012	44.445237528689	1
7	7065	44.446336844641	2
7	7074	44.446702177974	1
7	7127	44.447801493786	2
7	7136	44.448166827119	1
7	7189	44.449266142793	2
7	7198	44.449631476126	1
7	7251	44.45073079166	2
7	7260	44.451096124993	1
7	7313	44.45219544039	2
7	7323	44.452560773723	1
7	7485	45.2863706899	2
7	7491	45.286736023233	1
7	7564	46.292241695067	2
7	7570	46.2926070284	1
7	7809	49.485188337121	2
7	7815	49.485553670454	1
7	7887	50.493207582541	2
7	7893	50.493572915874	1
7	7941	50.715996695217	2
7	7947	50.716019361884	1
7	8312	55.853307932784	2
7	8318	55.853673266117	1
7	8349	56.133584941263	2
7	8355	56.133950274596	1
7	8380	56.306712397409	2
7	8386	56.307077730742	1
7	8405	56.423667807201	2
7	8411	56.424033140534	1
7	8484	57.491740004351	2
7	8490	57.492105337684	1
7	8515	57.640452273603	2
7	8521	57.640817606936	1
7	8546	57.85933287011	2
7	8552	57.859698203443	1
7	8595	58.31934682785	2
7	8601	58.319712161183	1
7	8732	60.039678485567	2
7	8738	60.0400438189	1
7	8830	61.014780419723	2
7	8836	61.015145753056	1
7	8855	61.115815195032	2
7	8861	61.116180528365	1
7	8897	61.534500017297	2
7	8903	61.534522683964	1
7	9185	64.864846654616	2
7	9191	64.865211987949	1
7	9769	65.464793541257	2
7	9775	65.46515887459	1
7	10310	65.484983669403	2
7	10317	65.485349002736	1
7	10901	66.06786205827	2
7	10907	66.068227391603	1
7	11683	69.959432181115	2
7	11689	69.959797514448	1
7	11798	70.404851643035	2
7	11804	70.405216976368	1
7	11873	70.53124027946	2
7	11879	70.531605612793	1
7	11966	70.913941228322	2
7	11972	70.914306561655	1
7	12065	71.448825604079	2
7	12071	71.449190937412	1
7	12105	71.515123005561	2
7	12111	71.515488338894	1
7	12242	72.694312532626	2
7	12248	72.694677865959	1
7	12301	73.002727372724	2
7	12307	73.003092706057	1
7	12378	73.743486323171	2
7	12384	73.743851656504	1
7	12418	73.842136631589	2
7	12424	73.842501964922	1
7	12524	74.700032272663	2
7	12530	74.700397605996	1
7	12577	75.025372688192	2
7	12583	75.025738021525	1
7	12609	75.034773438856	2
7	12615	75.035138772189	1
7	12664	75.316434702836	2
7	12670	75.316457369503	1
7	12774	76.882101089858	2
7	12780	76.882466423191	1
7	12887	78.142034899967	2
7	12893	78.1424002333	1
7	12973	78.483689066993	2
7	12979	78.484054400326	1
7	13063	79.366818108952	2
7	13069	79.367183442285	1
7	13099	79.387130567748	2
7	13105	79.387495901081	1
7	13259	81.152871640161	2
7	13265	81.153236973494	1
7	13308	81.311213146392	2
7	13314	81.311578479725	1
7	13362	81.6344133229	2
7	13368	81.634435989567	1
7	13415	82.15429617854	2
7	13421	82.154661511873	1
7	13575	83.48305405229	2
7	13581	83.483419385623	1
7	13616	83.769075024798	2
7	13622	83.769440358131	1
7	13692	84.627467992627	2
7	13698	84.62783332596	1
7	13784	85.524058863413	2
7	13790	85.524424196746	1
7	13882	86.542717593432	2
7	13888	86.543082926765	1
7	14087	89.334493009374	2
7	14093	89.334515676041	1
7	14122	89.594999250316	2
7	14128	89.595364583649	1
7	14280	91.468459130173	2
7	14286	91.468824463506	1
7	14308	91.591985777535	2
7	14314	91.592351110868	1
7	14420	93.048804336099	2
7	14426	93.049169669432	1
7	14488	93.579526832716	2
7	14494	93.579892166049	1
7	14642	95.709026228784	2
7	14648	95.709391562117	1
7	14712	96.57956205511	2
7	14718	96.579927388443	1
7	14888	98.714392505093	2
7	14894	98.714757838426	1
7	14914	98.805746794679	2
7	14920	98.805769461346	1
7	14998	99.60225391553	2
7	15004	99.602619248863	1
7	15061	100.364121686826	2
7	15067	100.364487020159	1
7	15116	100.626178928501	2
7	15122	100.626544261834	1
7	15167	101.177574918635	2
7	15173	101.177940251968	1
7	15248	102.109977799042	2
7	15254	102.110343132375	1
7	15285	102.12935758039	2
7	15291	102.129722913723	1
7	15378	103.388401097654	2
7	15384	103.388766430987	1
7	15423	103.728065830236	2
7	15429	103.728431163569	1
7	15474	104.211701516825	2
7	15480	104.212066850158	1
7	15595	105.594680723362	2
7	15601	105.595046056695	1
7	15628	105.74025470181	2
7	15634	105.740620035143	1
7	15668	106.094478834055	2
7	15674	106.094844167388	1
7	15743	106.938367306646	2
7	15749	106.938732639979	1
7	15819	107.832096384952	2
7	15825	107.832461718285	1
7	15888	108.686176120595	2
7	15894	108.686541453928	1
7	15975	109.745185505976	2
7	15981	109.745550839309	1
7	16078	110.801035114636	2
7	16084	110.801400447969	1
7	16111	111.051116609614	2
7	16117	111.051481942947	1
7	16130	111.058289608919	2
7	16136	111.058312275586	1
7	16163	111.203410234868	2
7	16169	111.203775568201	1
7	16214	111.775871786296	2
7	16220	111.776237119629	1
7	16421	114.000786443521	2
7	16427	114.001151776854	1
7	16491	114.594859941845	2
7	16497	114.595225275178	1
7	16668	117.114142071928	2
7	16674	117.114507405261	1
7	16761	118.36674959684	2
7	16767	118.367114930173	1
7	16900	119.733908325435	2
7	16906	119.733930992102	1
7	17298	125.132140116777	2
7	17304	125.13250545011	1
7	17389	126.088106540699	2
7	17395	126.088471874032	1
7	17500	127.597929996308	2
7	17506	127.598295329641	1
7	17660	129.599916491834	2
7	17672	129.600281825167	1
7	17735	130.441797453566	2
7	17741	130.442162786899	1
7	17786	130.964667483654	2
7	17792	130.965032816987	1
7	17813	131.036342867967	2
7	17819	131.0367082013	1
7	17922	132.231781434249	2
7	17928	132.232146767582	1
7	18008	132.776638562394	2
7	18014	132.777003895727	1
7	18059	133.231550407186	2
7	18065	133.231915740519	1
7	18080	133.248318173178	2
7	18086	133.248683506511	1
7	18119	133.510647482344	2
7	18125	133.511012815677	1
7	18151	133.780385768042	2
7	18157	133.780408434709	1
7	18263	134.958441564332	2
7	18269	134.958806897665	1
7	18369	136.344732916353	2
7	18375	136.345098249686	1
7	18415	136.759345459012	2
7	18421	136.759710792345	1
7	18479	137.431805975846	2
7	18485	137.432171309179	1
7	18525	137.845784898519	2
7	18531	137.846150231852	1
7	18559	138.043614405978	2
7	18565	138.043979739311	1
7	18609	138.231133357181	2
7	18615	138.231498690514	1
7	18643	138.484639062324	2
7	18649	138.485004395657	1
7	18695	138.908296163681	2
7	18701	138.908661497014	1
7	18911	141.54051502623	2
7	18917	141.540880359563	1
7	18933	141.572871830875	2
7	18939	141.573237164208	1
7	18967	141.752829172427	2
7	18973	141.75319450576	1
7	19024	142.380166358781	2
7	19030	142.380189025448	1
7	19073	142.724311330522	2
7	19079	142.724676663855	1
7	19167	143.925282237064	2
7	19173	143.925647570397	1
7	19438	147.883866946214	2
7	19444	147.883889612881	1
7	19534	148.804415125058	2
7	19540	148.804780458391	1
7	19595	149.57149477963	2
7	19601	149.571860112963	1
7	19669	150.46287335654	2
7	19675	150.463238689873	1
7	19801	151.772658727902	2
7	19807	151.773024061235	1
7	19850	152.280523850589	2
7	19856	152.280889183922	1
7	19887	152.516048424008	2
7	19893	152.516413757341	1
7	19918	152.722080472491	2
7	19924	152.722445805824	1
7	20120	155.55649228627	2
7	20126	155.556514952937	1
7	20146	155.61115606439	2
7	20152	155.611521397723	1
7	20201	156.285400634026	2
7	20207	156.285765967359	1
7	20238	156.543413397966	2
7	20244	156.543778731299	1
7	20275	156.836921049889	2
7	20281	156.837286383222	1
7	20300	156.936921049889	2
7	20306	156.937286383222	1
7	20349	157.46659957811	2
7	20355	157.466964911443	1
7	20392	157.840269372504	2
7	20398	157.840634705837	1
7	20499	159.032127476159	2
7	20505	159.032492809492	1
7	20607	159.99356704773	2
7	20613	159.993932381063	1
7	20746	161.92192718461	2
7	20752	161.922292517943	1
7	20843	163.283858908916	2
7	20849	163.284224242249	1
7	20920	163.935089640834	2
7	20926	163.935454974167	1
7	20987	164.70420944193	2
7	20993	164.704574775263	1
7	21170	166.974049457714	2
7	21176	166.974414791047	1
7	21207	167.218540479757	2
7	21213	167.21890581309	1
7	21267	167.952000251973	2
7	21273	167.95202291864	1
7	21311	168.306444913371	2
7	21317	168.306810246704	1
7	21336	168.454040946262	2
7	21342	168.454406279595	1
7	21373	168.714392357809	2
7	21379	168.714757691142	1
7	21537	170.847955645284	2
7	21543	170.848320978617	1
7	21586	171.331594032774	2
7	21592	171.331959366107	1
7	21659	172.219095961258	2
7	21665	172.219461294591	1
7	21812	173.997239298092	2
7	21818	173.997604631425	1
7	21957	176.058060538973	2
7	21963	176.058425872306	1
7	21994	176.377635193846	2
7	22000	176.378000527179	1
7	22126	177.977354635686	2
7	22132	177.977719969019	1
7	22237	179.116412286359	2
7	22243	179.116777619692	1
7	22338	180.279525569784	2
7	22344	180.279890903117	1
7	22391	180.522244063456	2
7	22397	180.522609396789	1
7	22531	182.016181140209	2
7	22537	182.016203806876	1
7	22635	183.466724340879	2
7	22641	183.467089674212	1
7	22704	183.759675799366	2
7	22710	183.760041132699	1
7	22948	186.916771340782	2
7	22954	186.917136674115	1
7	22984	186.942769085975	2
7	22990	186.943134419308	1
7	23032	187.17529410436	2
7	23038	187.175659437693	1
7	23059	187.176026991148	2
7	23069	187.176392324481	1
7	23090	187.176759878	2
7	23100	187.177125211333	1
7	23121	187.177492764916	2
7	23131	187.177858098249	1
7	23152	187.178225651894	2
7	23162	187.178590985227	1
7	23183	187.178958538936	2
7	23193	187.179323872269	1
7	23214	187.179691426042	2
7	23224	187.180056759375	1
7	23245	187.180424313212	2
7	23255	187.180789646545	1
7	23276	187.181157200446	2
7	23286	187.181522533779	1
7	23307	187.181890087744	2
7	23317	187.182255421077	1
7	23338	187.182622975106	2
7	23348	187.182988308439	1
7	23369	187.183355862531	2
7	23379	187.183721195864	1
7	23400	187.184088750019	2
7	23410	187.184454083352	1
7	23431	187.184821637571	2
7	23441	187.185186970904	1
7	23462	187.185554525187	2
7	23473	187.18591985852	1
7	23495	187.186287412867	2
7	23506	187.1866527462	1
7	23606	187.728132475012	2
7	23612	187.728497808345	1
7	23633	187.728865410337	2
7	23643	187.72923074367	1
7	23664	187.729598345727	2
7	23674	187.72996367906	1
7	23695	187.730331281182	2
7	23705	187.730696614515	1
7	23726	187.731064216702	2
7	23736	187.731429550035	1
7	23757	187.731797152287	2
7	23767	187.73216248562	1
7	23788	187.732530087937	2
7	23798	187.73289542127	1
7	23819	187.733263023652	2
7	23829	187.733628356985	1
7	23850	187.733995959432	2
7	23860	187.734361292765	1
7	23881	187.734728895277	2
7	23891	187.73509422861	1
7	23912	187.735461831187	2
7	23922	187.73582716452	1
7	23943	187.736194767161	2
7	23953	187.736560100494	1
7	23974	187.736927703201	2
7	23984	187.737293036534	1
7	24005	187.737660639305	2
7	24015	187.738025972638	1
7	24036	187.738393575475	2
7	24047	187.738758908808	1
7	24069	187.739126511709	2
7	24080	187.739491845042	1
7	24167	188.196808950989	2
7	24173	188.197174284322	1
7	24194	188.197541922707	2
7	24204	188.19790725604	1
7	24225	188.198274894471	2
7	24235	188.198640227804	1
7	24256	188.199007866281	2
7	24266	188.199373199614	1
7	24287	188.199740838136	2
7	24303	188.200106171469	1
7	24324	188.200473810037	2
7	24334	188.20083914337	1
7	24355	188.201206781984	2
7	24365	188.201572115317	1
7	24386	188.201939753977	2
7	24396	188.20230508731	1
7	24417	188.202672726015	2
7	24427	188.203038059348	1
7	24448	188.203405698099	2
7	24458	188.203771031432	1
7	24479	188.204138670229	2
7	24489	188.204504003562	1
7	24510	188.204871642404	2
7	24520	188.205236975737	1
7	24541	188.205604614625	2
7	24551	188.205969947958	1
7	24572	188.206337586892	2
7	24582	188.206702920225	1
7	24603	188.207070559205	2
7	24614	188.207435892538	1
7	24636	188.207803531564	2
7	24647	188.208168864897	1
7	24762	188.819638260754	2
7	24768	188.820003594087	1
7	24789	188.820371272158	2
7	24799	188.820736605491	1
7	24820	188.82110428361	2
7	24830	188.821469616943	1
7	24851	188.82183729511	2
7	24861	188.822202628443	1
7	24882	188.822570306658	2
7	24892	188.822935639991	1
7	24913	188.823303318253	2
7	24923	188.823668651586	1
7	24944	188.824036329895	2
7	24954	188.824401663228	1
7	24975	188.824769341585	2
7	24985	188.825134674918	1
7	25006	188.825502353323	2
7	25016	188.825867686656	1
7	25037	188.826235365109	2
7	25047	188.826600698442	1
7	25068	188.826968376943	2
7	25078	188.827333710276	1
7	25099	188.827701388824	2
7	25109	188.828066722157	1
7	25130	188.828434400752	2
7	25140	188.828799734085	1
7	25161	188.829167412728	2
7	25171	188.829532746061	1
7	25192	188.829900424752	2
7	25203	188.830265758085	1
7	25225	188.830633436824	2
7	25236	188.830998770157	1
7	25311	189.025996254359	2
7	25317	189.026361587692	1
7	25443	190.67407242752	2
7	25449	190.674437760853	1
7	25595	192.048752381322	2
7	25601	192.049117714655	1
7	25649	192.372951494808	2
7	25655	192.373316828141	1
7	25697	192.56521293565	2
7	25703	192.565578268983	1
7	25824	193.784212280831	2
7	25830	193.784577614164	1
7	25878	194.324739165606	2
7	25884	194.324761832273	1
7	25916	194.617590521477	2
7	25922	194.61795585481	1
7	25947	194.846834846684	2
7	25953	194.847200180017	1
7	25978	195.027109146262	2
7	25984	195.027474479595	1
7	26022	195.160449769535	2
7	26028	195.160815102868	1
7	26048	195.161182494844	2
7	26058	195.161547828177	1
7	26273	197.98108571795	2
7	26279	197.981451051283	1
7	26299	197.981818206409	2
7	26309	197.982183539742	1
7	26408	199.362048813617	2
7	26414	199.36241414695	1
7	26434	199.36278113205	2
7	26444	199.363146465383	1
7	26638	201.702540774274	2
7	26644	201.702906107607	1
7	26708	202.505932536941	2
7	26714	202.506297870274	1
7	26778	203.384147615659	2
7	26784	203.384512948992	1
7	27033	206.652644016482	2
7	27039	206.653009349815	1
7	27073	206.92817195352	2
7	27079	206.928537286853	1
7	27101	207.033859127625	2
7	27107	207.034224460958	1
7	27123	207.050425222047	2
7	27129	207.05079055538	1
7	27202	207.729024519214	2
7	27208	207.729047185881	1
7	27367	209.702983737567	2
7	27373	209.7033490709	1
7	27705	213.85895483313	2
7	27711	213.859320166463	1
7	27769	214.577201313238	2
7	27775	214.577566646571	1
7	27845	215.445767044704	2
7	27851	215.446132378037	1
7	27957	216.994778723859	2
7	27963	216.995144057192	1
7	28039	217.927390579128	2
7	28045	217.927755912461	1
7	28073	218.173806401341	2
7	28079	218.174171734674	1
7	28147	218.78108568996	2
7	28153	218.781451023293	1
7	28210	219.428189941683	2
7	28216	219.42821260835	1
7	28409	221.763286365433	2
7	28415	221.763651698766	1
7	28473	222.42912885207	2
7	28479	222.429494185403	1
7	28605	223.662009315101	2
7	28611	223.662374648434	1
7	28741	225.523440958083	2
7	28747	225.523806291416	1
7	28791	225.739537174677	2
7	28797	225.73990250801	1
7	28813	225.752862419505	2
7	28819	225.753227752838	1
7	28859	226.179398231541	2
7	28865	226.179763564874	1
7	28893	226.339732326028	2
7	28899	226.340097659361	1
7	29095	229.350872340148	2
7	29101	229.350895006815	1
7	29178	230.347681980902	2
7	29184	230.348047314235	1
7	29284	231.748357677862	2
7	29290	231.748723011195	1
7	29305	231.752413999183	2
7	29311	231.752779332516	1
7	29346	232.066411897246	2
7	29352	232.066777230579	1
7	29414	232.594879125548	2
7	29420	232.595244458881	1
7	29582	234.32151250529	2
7	29588	234.321877838623	1
7	29646	235.037557823284	2
7	29652	235.037923156617	1
7	29680	235.291569201634	2
7	29686	235.291934534967	1
7	29708	235.394537565353	2
7	29714	235.394902898686	1
7	29888	237.376427906462	2
7	29894	237.376793239795	1
7	30125	240.616390873363	2
7	30131	240.616756206696	1
7	30192	241.146352452635	2
7	30198	241.146717785968	1
7	30259	241.551535334977	2
7	30265	241.55190066831	1
7	30304	241.910829240103	2
7	30310	241.911194573436	1
7	30415	243.403461404295	2
7	30421	243.403826737628	1
7	30480	244.201195144562	2
7	30486	244.201217811229	1
7	30605	246.010033206616	2
7	30611	246.010398539949	1
7	30629	246.110033206616	2
7	30635	246.110398539949	1
7	30738	247.358088437963	2
7	30744	247.358453771296	1
7	30804	248.120512122178	2
7	30810	248.120877455511	1
7	30840	248.48375434108	2
7	30846	248.484119674413	1
7	31002	250.526071474889	2
7	31008	250.526094141556	1
7	31025	250.628139805593	2
7	31031	250.628505138926	1
7	31125	251.759518573197	2
7	31131	251.75988390653	1
7	31196	252.041042595668	2
7	31202	252.041407929001	1
7	31262	252.856060926564	2
7	31268	252.856426259897	1
7	31416	254.826118492156	2
7	31422	254.826483825489	1
7	31440	254.927652576097	2
7	31446	254.92801790943	1
7	31476	255.223554449345	2
7	31482	255.223919782678	1
7	31548	256.119883654366	2
7	31554	256.120248987699	1
7	31621	256.767058358409	2
7	31627	256.767423691742	1
7	31657	257.071029917638	2
7	31663	257.071395250971	1
7	31711	257.680094372962	2
7	31717	257.680459706295	1
7	31752	258.03229867248	2
7	31758	258.032321339147	1
7	31817	258.829835760712	2
7	31823	258.830201094045	1
7	31949	260.744678018355	2
7	31955	260.745043351688	1
7	32035	261.312848502097	2
7	32041	261.31321383543	1
7	32095	262.024856567722	2
7	32101	262.025221901055	1
7	32119	262.124856567722	2
7	32125	262.125221901055	1
7	32213	263.194120720304	2
7	32219	263.194486053637	1
7	32359	264.702335951931	2
7	32365	264.702701285264	1
7	32395	265.002661032217	2
7	32401	265.00302636555	1
7	32437	265.470767485452	2
7	32443	265.471132818785	1
7	32509	266.356528131482	2
7	32515	266.356893464815	1
7	32545	266.675111979361	2
7	32551	266.675477312694	1
7	32593	267.138502006901	2
7	32599	267.138867340234	1
7	32623	267.357970167795	2
7	32629	267.358335501128	1
7	32646	267.457970167795	2
7	32652	267.457992834462	1
7	32693	267.973889451579	2
7	32699	267.974254784912	1
7	32789	269.229782935919	2
7	32795	269.230148269252	1
7	32865	269.904733909572	2
7	32871	269.905099242905	1
7	32927	270.636279248705	2
7	32933	270.636644582038	1
7	32970	271.002730540538	2
7	32976	271.003095873871	1
7	33037	271.864398032333	2
7	33043	271.864763365666	1
7	33285	275.069206861945	2
7	33291	275.069572195278	1
7	33310	275.169206861945	2
7	33316	275.169572195278	1
7	33359	275.668034893511	2
7	33365	275.668400226844	1
7	33436	276.381419176312	2
7	33442	276.381784509645	1
7	33467	276.536704761817	2
7	33473	276.53707009515	1
7	33578	277.584993866773	2
7	33584	277.585359200106	1
7	33621	277.97905143872	2
7	33627	277.979416772053	1
7	33652	278.138063455519	2
7	33658	278.138428788852	1
7	33683	278.312262172102	2
7	33689	278.312627505435	1
7	33708	278.450848993525	2
7	33714	278.451214326858	1
7	33781	279.315787102954	2
7	33787	279.316152436287	1
7	33806	279.415787102954	2
7	33812	279.416152436287	1
7	33978	281.70408616541	2
7	33984	281.704108832077	1
7	34004	281.82660100577	2
7	34010	281.826966339103	1
7	34135	283.437933004891	2
7	34141	283.438298338224	1
7	34184	283.947135491757	2
7	34190	283.94750082509	1
7	34376	286.291005132556	2
7	34382	286.291370465889	1
7	34484	287.493718916385	2
7	34490	287.494084249718	1
7	34523	287.53380361246	2
7	34529	287.533826279127	1
7	34616	288.753360087009	2
7	34622	288.753725420342	1
7	34711	289.764129250108	2
7	34717	289.764494583441	1
7	34764	290.038592772112	2
7	34770	290.038958105445	1
7	34811	290.21358782033	2
7	34817	290.213953153663	1
7	34942	291.805143943123	2
7	34948	291.805509276456	1
7	35217	295.003398919893	2
7	35223	295.003764253226	1
7	35452	298.076474142678	2
7	35458	298.076839476011	1
7	35539	298.687531703964	2
7	35545	298.687897037297	1
7	35617	299.659542595026	2
7	35623	299.659907928359	1
7	35664	300.101590075065	2
7	35670	300.101612741732	1
7	35788	301.64748204987	2
7	35794	301.647847383203	1
7	36148	306.530981040215	2
7	36154	306.531346373548	1
7	36226	307.522260545974	2
7	36232	307.522625879307	1
7	36290	308.030480000027	2
7	36296	308.03084533336	1
7	36486	310.79108445571	2
7	36492	310.791449789043	1
7	36522	311.090412838128	2
7	36528	311.090778171461	1
7	36686	312.981141992559	2
7	36692	312.981507325892	1
7	36727	313.309261272662	2
7	36733	313.309283939329	1
7	36912	316.174903865241	2
7	36918	316.175269198574	1
7	36966	316.761672671921	2
7	36972	316.762038005254	1
7	37046	317.258881958264	2
7	37052	317.259247291597	1
7	37178	319.125522428445	2
7	37184	319.125887761778	1
7	37238	319.506974755787	2
7	37244	319.506997422454	1
7	37273	319.893985005836	2
7	37279	319.894350339169	1
7	37351	320.833486991699	2
7	37357	320.833852325032	1
7	37375	320.937157828341	2
7	37381	320.937523161674	1
7	37399	321.037157828341	2
7	37405	321.037523161674	1
7	37423	321.137157828341	2
7	37429	321.137523161674	1
7	37447	321.237157828341	2
7	37453	321.237523161674	1
7	37477	321.452523885071	2
7	37483	321.452889218404	1
7	37638	323.28206604093	2
7	37644	323.282431374263	1
7	37720	324.001710938619	2
7	37726	324.002076271952	1
7	37744	324.101710938619	2
7	37750	324.102076271952	1
7	37774	324.362486302103	2
7	37780	324.362851635436	1
7	37810	324.612437118753	2
7	37816	324.612802452086	1
7	37846	324.904383190482	2
7	37852	324.904748523815	1
7	37870	325.044858907437	2
7	37876	325.04522424077	1
7	37894	325.144858907437	2
7	37900	325.14522424077	1
7	37918	325.244858907437	2
7	37924	325.24522424077	1
7	37990	326.143275856105	2
7	37996	326.143641189438	1
7	38265	329.802837974567	2
7	38271	329.8032033079	1
7	38313	330.328868770327	2
7	38319	330.32923410366	1
7	38343	330.506745528183	2
7	38349	330.507110861516	1
7	38408	331.309676314705	2
7	38414	331.309698981372	1
7	38437	331.52496310699	2
7	38443	331.525328440323	1
7	38532	332.5466814544	2
7	38538	332.547046787733	1
7	38556	332.6466814544	2
7	38562	332.647046787733	1
7	38699	334.143154481989	2
7	38705	334.143519815322	1
7	38735	334.419459674917	2
7	38741	334.41982500825	1
7	38819	335.505662986074	2
7	38825	335.506028319407	1
7	38849	335.788109698032	2
7	38855	335.788475031365	1
7	38952	336.884302259041	2
7	38958	336.884667592374	1
7	39090	338.808040829709	2
7	39096	338.808406163042	1
7	39144	339.496554717753	2
7	39150	339.496920051086	1
7	39198	340.054881507018	2
7	39204	340.055246840351	1
7	39340	341.784001144701	2
7	39346	341.784366478034	1
7	39394	342.319899940041	2
7	39400	342.320265273374	1
7	39452	342.767039842638	2
7	39458	342.767405175971	1
7	39572	344.379904691596	2
7	39578	344.379927358263	1
7	40113	351.706174598076	2
7	40119	351.706197264743	1
7	40658	359.040377154016	2
7	40664	359.040399820683	1
7	41547	370.841532540509	2
7	41553	370.841555207176	1
7	42545	384.795391387308	2
7	42551	384.795414053975	1
7	43111	392.2795259906	2
7	43117	392.279548657267	1
7	43604	398.965290042108	2
7	43610	398.965312708775	1
7	44610	412.893912501169	2
7	44616	412.893935167836	1
7	45162	419.991412016099	2
7	45168	419.991434682766	1
7	45958	430.878808114214	2
7	45964	430.878830780881	1
7	46635	440.212563110939	2
7	46641	440.212928444272	1
7	46710	441.184612079419	2
7	46716	441.184977412752	1
7	46761	441.661609830363	2
7	46767	441.661975163696	1
7	46830	442.442778620351	2
7	46836	442.443143953684	1
7	46889	442.571657266393	2
7	46895	442.572022599726	1
7	46934	442.91009839921	2
7	46940	442.910463732543	1
7	46955	442.954025633337	2
7	46961	442.95439096667	1
7	46982	443.077435104844	2
7	46988	443.077800438177	1
7	47009	443.189965051223	2
7	47015	443.190330384556	1
7	47054	443.570475999785	2
7	47060	443.570841333118	1
7	47093	443.853548435632	2
7	47099	443.853913768965	1
7	47119	443.945501404816	2
7	47125	443.945524071483	1
7	47181	444.680874359235	2
7	47187	444.681239692568	1
7	47214	444.855784619331	2
7	47220	444.856149952664	1
7	47367	447.030017526465	2
7	47373	447.030382859798	1
7	47424	447.621320312034	2
7	47430	447.621685645367	1
7	47640	450.005935655265	2
7	47646	450.006300988598	1
7	47685	450.414853184512	2
7	47691	450.415218517845	1
7	47760	451.397091368921	2
7	47766	451.397456702254	1
7	47811	451.845420675533	2
7	47817	451.845786008866	1
7	47837	451.945790559986	2
7	47843	451.945813226653	1
7	47995	454.264472069692	2
7	48001	454.264837403025	1
7	48035	454.364472069692	2
7	48041	454.364837403025	1
7	48095	455.033900368726	2
7	48101	455.034265702059	1
7	48165	455.677625174578	2
7	48171	455.677990507911	1
7	48299	457.024252463114	2
7	48305	457.024617796447	1
7	48383	458.140771036672	2
7	48389	458.141136370005	1
7	48444	458.893540688711	2
7	48450	458.893906022044	1
7	48502	459.256587843105	2
7	48508	459.256953176438	1
7	48526	459.356587843105	2
7	48532	459.356953176438	1
7	48549	459.456587843105	2
7	48555	459.456610509772	1
7	48608	460.169262904787	2
7	48614	460.16962823812	1
7	48656	460.644472343572	2
7	48662	460.644837676905	1
7	48925	464.533117066342	2
7	48931	464.533482399675	1
7	49009	465.623362652803	2
7	49015	465.623727986136	1
7	49061	465.970291535958	2
7	49067	465.970656869291	1
7	49085	466.070291535958	2
7	49091	466.070656869291	1
7	49157	466.970165547953	2
7	49163	466.970530881286	1
7	49233	467.619576274747	2
7	49239	467.61994160808	1
7	49311	468.622138683075	2
7	49317	468.622504016408	1
7	49358	469.126267575195	2
7	49364	469.126290241862	1
7	49509	470.83536591461	2
7	49515	470.835731247943	1
7	49563	471.445128087468	2
7	49569	471.445493420801	1
7	49605	471.856828665341	2
7	49611	471.857193998674	1
7	49833	475.37998000657	2
7	49839	475.380345339903	1
7	49863	475.523203278051	2
7	49869	475.523568611384	1
7	49887	475.625018920028	2
7	49893	475.625384253361	1
7	49929	476.045686592428	2
7	49935	476.046051925761	1
7	50017	476.939792480553	2
7	50023	476.940157813886	1
7	50065	477.45524003056	2
7	50071	477.455605363893	1
7	50105	477.55524003056	2
7	50111	477.555605363893	1
7	50147	477.927228298733	2
7	50153	477.927593632066	1
7	50275	479.205230427899	2
7	50281	479.205595761232	1
7	50298	479.305230427899	2
7	50304	479.305253094566	1
7	50423	480.882165160891	2
7	50429	480.882530494224	1
7	50573	483.087565964693	2
7	50579	483.087931298026	1
7	50681	484.533873536849	2
7	50687	484.534238870182	1
7	50771	485.732024924693	2
7	50777	485.732390258026	1
7	50813	486.140742578927	2
7	50819	486.14110791226	1
7	50843	486.300542359361	2
7	50849	486.300907692694	1
7	50867	486.400542359361	2
7	50873	486.400907692694	1
7	50897	486.642168189834	2
7	50903	486.642533523167	1
7	50932	486.938363756055	2
7	50938	486.938386422722	1
7	50967	487.20829774153	2
7	50973	487.208663074863	1
7	51105	489.256880898127	2
7	51111	489.25724623146	1
7	51135	489.454612666068	2
7	51141	489.454977999401	1
7	51205	490.022500359187	2
7	51211	490.02286569252	1
7	51244	490.135673691579	2
7	51250	490.136039024912	1
7	51457	492.891886769057	2
7	51463	492.89225210239	1
7	51481	492.991886769057	2
7	51487	492.99225210239	1
7	51553	493.852686832781	2
7	51559	493.853052166114	1
7	51628	494.544650423342	2
7	51634	494.544673090009	1
8	0	0	1
8	12889	78.142036205708	3
8	12900	78.142401539041	1
8	12975	78.483690354219	3
8	12986	78.484055687552	1
8	13065	79.366819350591	3
8	13076	79.367184683924	1
8	13101	79.387131808417	3
8	13112	79.38749714175	1
8	13261	81.152872800743	3
8	13272	81.153238134076	1
8	13274	81.153238597337	3
8	13285	81.15360393067	1
8	13310	81.311214300226	3
8	13321	81.311579633559	1
8	13323	81.311580103418	3
8	13334	81.311945436751	1
8	13364	81.634414463074	3
8	13373	81.634437129741	1
8	13417	82.154297298756	3
8	13428	82.154662632089	1
8	13430	82.154663138111	3
8	13441	82.155028471444	1
8	13523	82.955585840096	3
8	13532	82.955608506763	1
8	13577	83.483055136752	3
8	13584	83.483420470085	1
8	13618	83.769076103378	3
8	13625	83.769441436711	1
8	13694	84.627469056297	3
8	13701	84.62783438963	1
8	13786	85.524059909062	3
8	13793	85.524425242395	1
8	13884	86.542718617021	3
8	13891	86.543083950354	1
8	14089	89.334494010734	3
8	14098	89.334516677401	1
8	14124	89.5950002488	3
8	14131	89.595365582133	1
8	14282	91.468460098229	3
8	14289	91.468825431562	1
8	14310	91.591986744874	3
8	14317	91.592352078207	1
8	14421	93.048805300868	3
8	14427	93.049170634201	1
8	14489	93.579527799561	3
8	14495	93.579893132894	1
8	14643	95.70902717644	3
8	14649	95.709392509773	1
8	14713	96.579563010344	3
8	14719	96.579928343677	1
8	14794	97.577470880149	3
8	14800	97.577493546816	1
8	14889	98.714393442441	3
8	14895	98.714758775774	1
8	14915	98.805747729547	3
8	14921	98.805770396214	1
8	14999	99.602254839822	3
8	15005	99.602620173155	1
8	15062	100.364122601475	3
8	15068	100.364487934808	1
8	15117	100.626179838512	3
8	15123	100.626545171845	1
8	15168	101.177575820787	3
8	15174	101.17794115412	1
8	15249	102.109978694408	3
8	15255	102.110344027741	1
8	15286	102.129358475709	3
8	15292	102.129723809042	1
8	15379	103.388401988433	3
8	15385	103.388767321766	1
8	15424	103.728066717546	3
8	15430	103.728432050879	1
8	15475	104.211702399391	3
8	15481	104.212067732724	1
8	15596	105.594681602398	3
8	15602	105.595046935731	1
8	15629	105.740255581681	3
8	15635	105.740620915014	1
8	15669	106.094479714339	3
8	15675	106.094845047672	1
8	15744	106.938368177911	3
8	15750	106.938733511244	1
8	15820	107.832097262463	3
8	15826	107.832462595796	1
8	15889	108.686176997791	3
8	15895	108.686542331124	1
8	15976	109.745186377101	3
8	15982	109.745551710434	1
8	16079	110.801035950496	3
8	16085	110.801401283829	1
8	16112	111.051117437262	3
8	16118	111.051482770595	1
8	16131	111.05829043632	3
8	16137	111.058313102987	1
8	16164	111.203411057287	3
8	16170	111.20377639062	1
8	16215	111.775872589514	3
8	16221	111.776237922847	1
8	16422	114.000787173075	3
8	16428	114.001152506408	1
8	16492	114.594860655556	3
8	16498	114.595225988889	1
8	16669	117.114142727469	3
8	16675	117.114508060802	1
8	16762	118.366750238557	3
8	16768	118.36711557189	1
8	16901	119.733908953567	3
8	16907	119.733931620234	1
8	17299	125.132140740969	3
8	17305	125.132506074302	1
8	17390	126.088107190362	3
8	17396	126.088472523695	1
8	17501	127.597930689986	3
8	17507	127.598296023319	1
8	17661	129.599917293303	3
8	17673	129.600282626636	1
8	17736	130.441798305933	3
8	17742	130.442163639266	1
8	17787	130.964668366883	3
8	17793	130.965033700216	1
8	17814	131.036343754788	3
8	17820	131.036709088121	1
8	17923	132.231782358739	3
8	17929	132.232147692072	1
8	18009	132.776639492649	3
8	18015	132.777004825982	1
8	18060	133.231551339361	3
8	18066	133.231916672694	1
8	18081	133.248319105297	3
8	18087	133.24868443863	1
8	18120	133.510648413698	3
8	18126	133.511013747031	1
8	18152	133.780386698849	3
8	18158	133.780409365516	1
8	18264	134.958442491419	3
8	18270	134.958807824752	1
8	18370	136.344733861259	3
8	18376	136.345099194592	1
8	18416	136.759346410678	3
8	18422	136.759711744011	1
8	18480	137.431806937439	3
8	18486	137.432172270772	1
8	18526	137.845785866438	3
8	18532	137.846151199771	1
8	18560	138.043615377452	3
8	18566	138.043980710785	1
8	18610	138.231134332973	3
8	18616	138.231499666306	1
8	18644	138.484640044145	3
8	18650	138.485005377478	1
8	18696	138.908297156062	3
8	18702	138.908662489395	1
8	18913	141.540516121406	3
8	18920	141.540881454739	1
8	18935	141.572872927474	3
8	18942	141.573238260807	1
8	18969	141.752830277016	3
8	18976	141.753195610349	1
8	19026	142.380167487561	3
8	19035	142.380190154228	1
8	19075	142.724312471642	3
8	19082	142.724677804975	1
8	19169	143.925283421423	3
8	19176	143.925648754756	1
8	26640	201.702542059324	3
8	26647	201.702907392657	1
8	26710	202.505933795001	3
8	26717	202.506299128334	1
8	26780	203.384148846418	3
8	26787	203.384514179751	1
8	27035	206.652645123639	3
8	27042	206.653010456972	1
8	27075	206.928173049184	3
8	27082	206.928538382517	1
8	27103	207.033860218415	3
8	27110	207.034225551748	1
8	27125	207.050426311908	3
8	27132	207.050791645241	1
8	27204	207.729025551327	3
8	27213	207.729048217994	1
8	27369	209.702984623924	3
8	27376	209.703349957257	1
8	27530	211.579590633206	3
8	27539	211.579613299873	1
8	27707	213.858955549879	3
8	27714	213.859320883212	1
8	27771	214.577202021017	3
8	27778	214.57756735435	1
8	27847	215.44576775434	3
8	27854	215.446133087673	1
8	27959	216.994779459634	3
8	27966	216.995144792967	1
8	28041	217.92739131165	3
8	28048	217.927756644983	1
8	28075	218.173807131182	3
8	28082	218.174172464515	1
8	28149	218.781086411191	3
8	28156	218.781451744524	1
8	28212	219.428190654246	3
8	28221	219.428213320913	1
8	28411	221.763287070841	3
8	28418	221.763652404174	1
8	28475	222.429129560045	3
8	28482	222.429494893378	1
8	28496	222.443692020054	3
8	28505	222.443714686721	1
8	28607	223.662010026085	3
8	28614	223.662375359418	1
8	28743	225.523441679306	3
8	28750	225.523807012639	1
8	28793	225.739537897131	3
8	28800	225.739903230464	1
8	28815	225.752863142048	3
8	28822	225.753228475381	1
8	28861	226.179398956268	3
8	28868	226.179764289601	1
8	28895	226.339733051189	3
8	28902	226.340098384522	1
8	29097	229.350873124968	3
8	29106	229.350895791635	1
8	29180	230.347682792152	3
8	29187	230.348048125485	1
8	29286	231.748358532915	3
8	29293	231.748723866248	1
8	29307	231.75241485438	3
8	29314	231.752780187713	1
8	29347	232.066412762708	3
8	29353	232.066778096041	1
8	29415	232.594880002577	3
8	29421	232.59524533591	1
8	29583	234.321513439748	3
8	29589	234.321878773081	1
8	29647	235.03755878998	3
8	29653	235.037924123313	1
8	29681	235.291570177558	3
8	29687	235.291935510891	1
8	29709	235.394538545046	3
8	29715	235.394903878379	1
8	29778	236.186571211106	3
8	29784	236.186593877773	1
8	29889	237.376428959958	3
8	29895	237.376794293291	1
8	30126	240.616392088994	3
8	30132	240.616757422327	1
8	30193	241.146353699663	3
8	30199	241.146719032996	1
8	30260	241.551536600302	3
8	30266	241.551901933635	1
8	30305	241.910830521693	3
8	30311	241.911195855026	1
8	30689	246.878679060529	3
8	30695	246.878701727196	1
8	31177	252.018163201142	3
8	31183	252.018185867809	1
8	37525	321.934043430707	3
8	37531	321.934066097374	1
8	38074	327.264788998643	3
8	38080	327.26481166531	1
8	38885	336.008020937114	3
8	38891	336.008043603781	1
8	39788	347.28038200377	3
8	39794	347.280404670437	1
8	39993	350.276812255365	3
8	39999	350.276834922032	1
8	40459	356.487411149768	3
8	40465	356.487433816435	1
8	40858	361.970099216205	3
8	40864	361.970121882872	1
8	41478	370.014783415613	3
8	41484	370.01480608228	1
8	41895	376.015103560521	3
8	41901	376.015126227188	1
8	42388	382.742674499342	3
8	42394	382.742697166009	1
8	42670	386.483952083923	3
8	42676	386.48397475059	1
8	43061	391.759809959674	3
8	43070	391.759832626341	1
8	43251	394.261688851241	3
8	43257	394.261711517908	1
8	43795	401.798114405464	3
8	43801	401.798137072131	1
8	44670	413.560539584874	3
8	44679	413.560562251541	1
8	45959	430.87880933533	3
8	45965	430.878832001997	1
8	46636	440.212564171004	3
8	46642	440.212929504337	1
8	46711	441.184613146496	3
8	46717	441.184978479829	1
8	46762	441.661610905923	3
8	46768	441.661976239256	1
8	46831	442.442779701777	3
8	46837	442.44314503511	1
8	46890	442.571658347694	3
8	46896	442.572023681027	1
8	46935	442.910099480512	3
8	46941	442.910464813845	1
8	46956	442.954026714674	3
8	46962	442.954392048007	1
8	46983	443.077436187561	3
8	46989	443.077801520894	1
8	47010	443.189966135926	3
8	47016	443.190331469259	1
8	47055	443.570477085883	3
8	47061	443.570842419216	1
8	47094	443.853549524614	3
8	47100	443.853914857947	1
8	47120	443.945502494812	3
8	47126	443.945525161479	1
8	47182	444.680875447452	3
8	47188	444.681240780785	1
8	47215	444.855785707304	3
8	47221	444.856151040637	1
8	47368	447.030018642723	3
8	47374	447.030383976056	1
8	47425	447.621321444811	3
8	47431	447.621686778144	1
8	47641	450.005936867813	3
8	47647	450.006302201146	1
8	47686	450.414854412712	3
8	47692	450.415219746045	1
8	47761	451.397092643525	3
8	47767	451.397457976858	1
8	47812	451.84542197693	3
8	47818	451.845787310263	1
8	47838	451.945791867531	3
8	47844	451.945814534198	1
9	0	0	1
9	677	10.928446163889	2
9	683	10.928468830556	1
9	1686	24.400963536464	2
9	1692	24.400986203131	1
9	2372	34.015757164453	2
9	2378	34.01577983112	1
9	4503	41.181260731538	2
9	4509	41.181283398205	1
9	8093	52.712661053521	2
9	8099	52.712683720188	1
9	8934	61.856346933638	2
9	8940	61.856369600305	1
9	12124	71.542858916802	2
9	12130	71.542881583469	1
9	13451	82.194747573232	2
9	13457	82.194770239899	1
9	14173	90.07951189764	2
9	14179	90.079534564307	1
9	15530	104.865221136717	2
9	15536	104.865243803384	1
9	16447	114.152908122634	2
9	16453	114.152930789301	1
9	16943	120.155176988339	2
9	16949	120.155199655006	1
9	18176	133.836437594147	2
9	18182	133.836460260814	1
9	19481	148.277672801634	2
9	19487	148.277695468301	1
9	20541	159.417332326995	2
9	20547	159.417354993662	1
9	21111	166.213369101753	2
9	21117	166.21339176842	1
9	22461	181.116758561695	2
9	22467	181.116781228362	1
9	24721	188.411176851952	2
9	24727	188.411199518619	1
9	26096	195.559984217399	2
9	26102	195.560006884066	1
9	26548	200.864513874986	2
9	26554	200.864536541653	1
9	27242	208.039018819109	2
9	27248	208.039041485776	1
9	28362	221.369399765972	2
9	28368	221.369422432639	1
9	29495	233.52501129033	2
9	29501	233.525033956997	1
9	30236	241.503429508302	2
9	30242	241.503452174969	1
9	30977	250.498418677598	2
9	30983	250.498441344265	1
9	31571	256.293639545329	2
9	31577	256.293662211996	1
9	32318	264.309625884052	2
9	32324	264.309648550719	1
9	33531	277.083701463416	2
9	33537	277.083724130083	1
9	34467	287.475937432609	2
9	34473	287.475960099276	1
9	35498	298.277908510062	2
9	35504	298.277931176729	1
9	35977	304.252595375291	2
9	35983	304.252618041958	1
9	36433	310.102606071158	2
9	36439	310.102628737825	1
9	37207	319.34292858932	2
9	37213	319.342951255987	1
9	38649	333.635842723305	2
9	38655	333.635865389972	1
9	39305	341.519827754235	2
9	39311	341.519850420902	1
9	40237	353.585574829484	2
9	40243	353.585597496151	1
9	40888	362.166649580466	2
9	40894	362.166672247133	1
9	41913	376.026272235902	2
9	41919	376.026294902569	1
9	42983	390.822004762011	2
9	42989	390.822027428678	1
9	44066	405.493216004687	2
9	44072	405.493238671354	1
9	44462	410.795568604952	2
9	44468	410.795591271619	1
9	44850	415.880684487054	2
9	44856	415.880707153721	1
9	45613	426.271419962866	2
9	45619	426.271442629533	1
9	46567	439.408206448423	2
9	46573	439.40822911509	1
9	47608	449.854679994749	2
9	47614	449.854702661416	1
9	48224	456.313381539656	2
9	48230	456.313404206323	1
9	49025	465.660987920126	2
9	49031	465.661010586793	1
9	50080	477.464474632869	2
9	50086	477.464497299536	1
9	51400	492.457254510371	2
9	51406	492.457277177038	1
10	0	0	1
10	895	13.442658117559	3
10	901	13.442680784226	1
10	1820	26.359908433474	3
10	1826	26.359931100141	1
10	2672	38.14870373955	3
10	2678	38.148726406217	1
10	2725	38.48295646714	3
10	2734	38.483321800473	1
10	2755	38.483688369701	3
10	2765	38.484053703034	1
10	2787	38.48442160407	3
10	2796	38.484786937403	1
10	2817	38.485153506547	3
10	2827	38.48551883988	1
10	2849	38.485886740971	3
10	2858	38.486252074304	1
10	2879	38.486618643364	3
10	2889	38.486983976697	1
10	2911	38.487351877844	3
10	2920	38.487717211177	1
10	2941	38.488083780154	3
10	2951	38.488449113487	1
10	2973	38.488817014689	3
10	2982	38.489182348022	1
10	3003	38.489548916915	3
10	3013	38.489914250248	1
10	3035	38.490282151505	3
10	3044	38.490647484838	1
10	3065	38.491014053647	3
10	3075	38.49137938698	1
10	3097	38.491747288293	3
10	3106	38.492112621626	1
10	3127	38.492479190352	3
10	3137	38.492844523685	1
10	3160	38.493212425054	3
10	3170	38.493577758387	1
10	3192	38.493944327029	3
10	3203	38.494309660362	1
10	3425	40.809307498479	3
10	3434	40.809672831812	1
10	3455	40.810039314908	3
10	3465	40.810404648241	1
10	3487	40.810772574701	3
10	3496	40.811137908034	1
10	3517	40.8115043911	3
10	3527	40.811869724433	1
10	3549	40.812237650911	3
10	3558	40.812602984244	1
10	3579	40.812969467281	3
10	3589	40.813334800614	1
10	3611	40.813702727111	3
10	3620	40.814068060444	1
10	3641	40.814434543451	3
10	3651	40.814799876784	1
10	3673	40.815167803299	3
10	3682	40.815533136632	1
10	3703	40.81589961961	3
10	3713	40.816264952943	1
10	3735	40.816632879475	3
10	3744	40.816998212808	1
10	3765	40.817364695756	3
10	3775	40.817730029089	1
10	3797	40.818097955639	3
10	3806	40.818463288972	1
10	3827	40.818829771891	3
10	3837	40.819195105224	1
10	3860	40.819563031793	3
10	3870	40.819928365126	1
10	3892	40.820294848015	3
10	3903	40.820660181348	1
10	3962	40.871422788713	3
10	3971	40.871788122046	1
10	3992	40.872154603908	3
10	4002	40.872519937241	1
10	4024	40.872887864469	3
10	4033	40.873253197802	1
10	4054	40.873619679635	3
10	4064	40.873985012968	1
10	4086	40.874352940215	3
10	4095	40.874718273548	1
10	4116	40.875084755353	3
10	4126	40.875450088686	1
10	4148	40.875818015952	3
10	4157	40.876183349285	1
10	4178	40.876549831061	3
10	4188	40.876915164394	1
10	4210	40.877283091678	3
10	4219	40.877648425011	1
10	4240	40.878014906758	3
[...]
81	52001	381.1	0
81	52001	381.2	0
81	52001	381.3	0
81	52001	381.4	0
81	52001	381.5	0
81	52001	381.6	0
81	52001	381.7	0
81	52001	381.8	0
81	52001	381.9	0
81	52001	382	0
81	52001	382.1	0
81	52001	382.2	0
81	52001	382.3	0
81	52001	382.4	0
81	52001	382.5	0
81	52001	382.6	0
81	52001	382.7	0
81	52001	382.8	0
81	52001	382.9	0
81	52001	383	0
81	52001	383.1	0
81	52001	383.2	0
81	52001	383.3	0
81	52001	383.4	0
81	52001	383.5	0
81	52001	383.6	0
81	52001	383.7	0
81	52001	383.8	0
81	52001	383.9	0
81	52001	384	0
81	52001	384.1	0
81	52001	384.2	0
81	52001	384.3	0
81	52001	384.4	0
81	52001	384.5	0
81	52001	384.6	0
81	52001	384.7	0
81	52001	384.8	0
81	52001	384.9	0
81	52001	385	0
81	52001	385.1	0
81	52001	385.2	0
81	52001	385.3	0
81	52001	385.4	0
81	52001	385.5	0
81	52001	385.6	0
81	52001	385.7	0
81	52001	385.8	0
81	52001	385.9	0
81	52001	386	0
81	52001	386.1	0
81	52001	386.2	0
81	52001	386.3	0
81	52001	386.4	0
81	52001	386.5	0
81	52001	386.6	0
81	52001	386.7	0
81	52001	386.8	0
81	52001	386.9	0
81	52001	387	0
81	52001	387.1	0
81	52001	387.2	0
81	52001	387.3	0
81	52001	387.4	0
81	52001	387.5	0
81	52001	387.6	0
81	52001	387.7	0
81	52001	387.8	0
81	52001	387.9	0
81	52001	388	0
81	52001	388.1	0
81	52001	388.2	0
81	52001	388.3	0
81	52001	388.4	0
81	52001	388.5	0
81	52001	388.6	0
81	52001	388.7	0
81	52001	388.8	0
81	52001	388.9	0
81	52001	389	0
81	52001	389.1	0
81	52001	389.2	0
81	52001	389.3	0
81	52001	389.4	0
81	52001	389.5	0
81	52001	389.6	0
81	52001	389.7	0
81	52001	389.8	0
81	52001	389.9	0
81	52001	390	0
81	52001	390.1	0
81	52001	390.2	0
81	52001	390.3	0
81	52001	390.4	0
81	52001	390.5	0
81	52001	390.6	0
81	52001	390.7	0
81	52001	390.8	0
81	52001	390.9	0
81	52001	391	0
81	52001	391.1	0
81	52001	391.2	0
81	52001	391.3	0
81	52001	391.4	0
81	52001	391.5	0
81	52001	391.6	0
81	52001	391.7	0
81	52001	391.8	0
81	52001	391.9	0
81	52001	392	0
81	52001	392.1	0
81	52001	392.2	0
81	52001	392.3	0
81	52001	392.4	0
81	52001	392.5	0
81	52001	392.6	0
81	52001	392.7	0
81	52001	392.8	0
81	52001	392.9	0
81	52001	393	0
81	52001	393.1	0
81	52001	393.2	0
81	52001	393.3	0
81	52001	393.4	0
81	52001	393.5	0
81	52001	393.6	0
81	52001	393.7	0
81	52001	393.8	0
81	52001	393.9	0
81	52001	394	0
81	52001	394.1	0
81	52001	394.2	0
81	52001	394.3	0
81	52001	394.4	0
81	52001	394.5	0
81	52001	394.6	0
81	52001	394.7	0
81	52001	394.8	0
81	52001	394.9	0
81	52001	395	0
81	52001	395.1	0
81	52001	395.2	0
81	52001	395.3	0
81	52001	395.4	0
81	52001	395.5	0
81	52001	395.6	0
81	52001	395.7	0
81	52001	395.8	0
81	52001	395.9	0
81	52001	396	0
81	52001	396.1	0
81	52001	396.2	0
81	52001	396.3	0
81	52001	396.4	0
81	52001	396.5	0
81	52001	396.6	0
81	52001	396.7	0
81	52001	396.8	0
81	52001	396.9	0
81	52001	397	0
81	52001	397.1	0
81	52001	397.2	0
81	52001	397.3	0
81	52001	397.4	0
81	52001	397.5	0
81	52001	397.6	0
81	52001	397.7	0
81	52001	397.8	0
81	52001	397.9	0
81	52001	398	0
81	52001	398.1	0
81	52001	398.2	0
81	52001	398.3	0
81	52001	398.4	0
81	52001	398.5	0
81	52001	398.6	0
81	52001	398.7	0
81	52001	398.8	0
81	52001	398.9	0
81	52001	399	0
81	52001	399.1	0
81	52001	399.2	0
81	52001	399.3	0
81	52001	399.4	0
81	52001	399.5	0
81	52001	399.6	0
81	52001	399.7	0
81	52001	399.8	0
81	52001	399.9	0
81	52001	400	0
81	52001	400.1	0
81	52001	400.2	0
81	52001	400.3	0
81	52001	400.4	0
81	52001	400.5	0
81	52001	400.6	0
81	52001	400.7	0
81	52001	400.8	0
81	52001	400.9	0
81	52001	401	0
81	52001	401.1	0
81	52001	401.2	0
81	52001	401.3	0
81	52001	401.4	0
81	52001	401.5	0
81	52001	401.6	0
81	52001	401.7	0
81	52001	401.8	0
81	52001	401.9	0
81	52001	402	0
81	52001	402.1	0
81	52001	402.2	0
81	52001	402.3	0
81	52001	402.4	0
81	52001	402.5	0
81	52001	402.6	0
81	52001	402.7	0
81	52001	402.8	0
81	52001	402.9	0
81	52001	403	0
81	52001	403.1	0
81	52001	403.2	0
81	52001	403.3	0
81	52001	403.4	0
81	52001	403.5	0
81	52001	403.6	0
81	52001	403.7	0
81	52001	403.8	0
81	52001	403.9	0
81	52001	404	0
81	52001	404.1	0
81	52001	404.2	0
81	52001	404.3	0
81	52001	404.4	0
81	52001	404.5	0
81	52001	404.6	0
81	52001	404.7	0
81	52001	404.8	0
81	52001	404.9	0
81	52001	405	0
81	52001	405.1	0
81	52001	405.2	0
81	52001	405.3	0
81	52001	405.4	0
81	52001	405.5	0
81	52001	405.6	0
81	52001	405.7	0
81	52001	405.8	0
81	52001	405.9	0
81	52001	406	0
81	52001	406.1	0
81	52001	406.2	0
81	52001	406.3	0
81	52001	406.4	0
81	52001	406.5	0
81	52001	406.6	0
81	52001	406.7	0
81	52001	406.8	0
81	52001	406.9	0
81	52001	407	0
81	52001	407.1	0
81	52001	407.2	0
81	52001	407.3	0
81	52001	407.4	0
81	52001	407.5	0
81	52001	407.6	0
81	52001	407.7	0
81	52001	407.8	0
81	52001	407.9	0
81	52001	408	0
81	52001	408.1	0
81	52001	408.2	0
81	52001	408.3	0
81	52001	408.4	0
81	52001	408.5	0
81	52001	408.6	0
81	52001	408.7	0
81	52001	408.8	0
81	52001	408.9	0
81	52001	409	0
81	52001	409.1	0
81	52001	409.2	0
81	52001	409.3	0
81	52001	409.4	0
81	52001	409.5	0
81	52001	409.6	0
81	52001	409.7	0
81	52001	409.8	0
81	52001	409.9	0
81	52001	410	0
81	52001	410.1	0
81	52001	410.2	0
81	52001	410.3	0
81	52001	410.4	0
81	52001	410.5	0
81	52001	410.6	0
81	52001	410.7	0
81	52001	410.8	0
81	52001	410.9	0
81	52001	411	0
81	52001	411.1	0
81	52001	411.2	0
81	52001	411.3	0
81	52001	411.4	0
81	52001	411.5	0
81	52001	411.6	0
81	52001	411.7	0
81	52001	411.8	0
81	52001	411.9	0
81	52001	412	0
81	52001	412.1	0
81	52001	412.2	0
81	52001	412.3	0
81	52001	412.4	0
81	52001	412.5	0
81	52001	412.6	0
81	52001	412.7	0
81	52001	412.8	0
81	52001	412.9	0
81	52001	413	0
81	52001	413.1	0
81	52001	413.2	0
81	52001	413.3	0
81	52001	413.4	0
81	52001	413.5	0
81	52001	413.6	0
81	52001	413.7	0
81	52001	413.8	0
81	52001	413.9	0
81	52001	414	0
81	52001	414.1	0
81	52001	414.2	0
81	52001	414.3	0
81	52001	414.4	0
81	52001	414.5	0
81	52001	414.6	0
81	52001	414.7	0
81	52001	414.8	0
81	52001	414.9	0
81	52001	415	0
81	52001	415.1	0
81	52001	415.2	0
81	52001	415.3	0
81	52001	415.4	0
81	52001	415.5	0
81	52001	415.6	0
81	52001	415.7	0
81	52001	415.8	0
81	52001	415.9	0
81	52001	416	0
81	52001	416.1	0
81	52001	416.2	0
81	52001	416.3	0
81	52001	416.4	0
81	52001	416.5	0
81	52001	416.6	0
81	52001	416.7	0
81	52001	416.8	0
81	52001	416.9	0
81	52001	417	0
81	52001	417.1	0
81	52001	417.2	0
81	52001	417.3	0
81	52001	417.4	0
81	52001	417.5	0
81	52001	417.6	0
81	52001	417.7	0
81	52001	417.8	0
81	52001	417.9	0
81	52001	418	0
81	52001	418.1	0
81	52001	418.2	0
81	52001	418.3	0
81	52001	418.4	0
81	52001	418.5	0
81	52001	418.6	0
81	52001	418.7	0
81	52001	418.8	0
81	52001	418.9	0
81	52001	419	0
81	52001	419.1	0
81	52001	419.2	0
81	52001	419.3	0
81	52001	419.4	0
81	52001	419.5	0
81	52001	419.6	0
81	52001	419.7	0
81	52001	419.8	0
81	52001	419.9	0
81	52001	420	0
81	52001	420.1	0
81	52001	420.2	0
81	52001	420.3	0
81	52001	420.4	0
81	52001	420.5	0
81	52001	420.6	0
81	52001	420.7	0
81	52001	420.8	0
81	52001	420.9	0
81	52001	421	0
81	52001	421.1	0
81	52001	421.2	0
81	52001	421.3	0
81	52001	421.4	0
81	52001	421.5	0
81	52001	421.6	0
81	52001	421.7	0
81	52001	421.8	0
81	52001	421.9	0
81	52001	422	0
81	52001	422.1	0
81	52001	422.2	0
81	52001	422.3	0
81	52001	422.4	0
81	52001	422.5	0
81	52001	422.6	0
81	52001	422.7	0
81	52001	422.8	0
81	52001	422.9	0
81	52001	423	0
81	52001	423.1	0
81	52001	423.2	0
81	52001	423.3	0
81	52001	423.4	0
81	52001	423.5	0
81	52001	423.6	0
81	52001	423.7	0
81	52001	423.8	0
81	52001	423.9	0
81	52001	424	0
81	52001	424.1	0
81	52001	424.2	0
81	52001	424.3	0
81	52001	424.4	0
81	52001	424.5	0
81	52001	424.6	0
81	52001	424.7	0
81	52001	424.8	0
81	52001	424.9	0
81	52001	425	0
81	52001	425.1	0
81	52001	425.2	0
81	52001	425.3	0
81	52001	425.4	0
81	52001	425.5	0
81	52001	425.6	0
81	52001	425.7	0
81	52001	425.8	0
81	52001	425.9	0
81	52001	426	0
81	52001	426.1	0
81	52001	426.2	0
81	52001	426.3	0
81	52001	426.4	0
81	52001	426.5	0
81	52001	426.6	0
81	52001	426.7	0
81	52001	426.8	0
81	52001	426.9	0
81	52001	427	0
81	52001	427.1	0
81	52001	427.2	0
81	52001	427.3	0
81	52001	427.4	0
81	52001	427.5	0
81	52001	427.6	0
81	52001	427.7	0
81	52001	427.8	0
81	52001	427.9	0
81	52001	428	0
81	52001	428.1	0
81	52001	428.2	0
81	52001	428.3	0
81	52001	428.4	0
81	52001	428.5	0
81	52001	428.6	0
81	52001	428.7	0
81	52001	428.8	0
81	52001	428.9	0
81	52001	429	0
81	52001	429.1	0
81	52001	429.2	0
81	52001	429.3	0
81	52001	429.4	0
81	52001	429.5	0
81	52001	429.6	0
81	52001	429.7	0
81	52001	429.8	0
81	52001	429.9	0
81	52001	430	0
81	52001	430.1	0
81	52001	430.2	0
81	52001	430.3	0
81	52001	430.4	0
81	52001	430.5	0
81	52001	430.6	0
81	52001	430.7	0
81	52001	430.8	0
81	52001	430.9	0
81	52001	431	0
81	52001	431.1	0
81	52001	431.2	0
81	52001	431.3	0
81	52001	431.4	0
81	52001	431.5	0
81	52001	431.6	0
81	52001	431.7	0
81	52001	431.8	0
81	52001	431.9	0
81	52001	432	0
81	52001	432.1	0
81	52001	432.2	0
81	52001	432.3	0
81	52001	432.4	0
81	52001	432.5	0
81	52001	432.6	0
81	52001	432.7	0
81	52001	432.8	0
81	52001	432.9	0
81	52001	433	0
81	52001	433.1	0
81	52001	433.2	0
81	52001	433.3	0
81	52001	433.4	0
81	52001	433.5	0
81	52001	433.6	0
81	52001	433.7	0
81	52001	433.8	0
81	52001	433.9	0
81	52001	434	0
81	52001	434.1	0
81	52001	434.2	0
81	52001	434.3	0
81	52001	434.4	0
81	52001	434.5	0
81	52001	434.6	0
81	52001	434.7	0
81	52001	434.8	0
81	52001	434.9	0
81	52001	435	0
81	52001	435.1	0
81	52001	435.2	0
81	52001	435.3	0
81	52001	435.4	0
81	52001	435.5	0
81	52001	435.6	0
81	52001	435.7	0
81	52001	435.8	0
81	52001	435.9	0
81	52001	436	0
81	52001	436.1	0
81	52001	436.2	0
81	52001	436.3	0
81	52001	436.4	0
81	52001	436.5	0
81	52001	436.6	0
81	52001	436.7	0
81	52001	436.8	0
81	52001	436.9	0
81	52001	437	0
81	52001	437.1	0
81	52001	437.2	0
81	52001	437.3	0
81	52001	437.4	0
81	52001	437.5	0
81	52001	437.6	0
81	52001	437.7	0
81	52001	437.8	0
81	52001	437.9	0
81	52001	438	0
81	52001	438.1	0
81	52001	438.2	0
81	52001	438.3	0
81	52001	438.4	0
81	52001	438.5	0
81	52001	438.6	0
81	52001	438.7	0
81	52001	438.8	0
81	52001	438.9	0
81	52001	439	0
81	52001	439.1	0
81	52001	439.2	0
81	52001	439.3	0
81	52001	439.4	0
81	52001	439.5	0
81	52001	439.6	0
81	52001	439.7	0
81	52001	439.8	0
81	52001	439.9	0
81	52001	440	0
81	52001	440.1	0
81	52001	440.2	0
81	52001	440.3	0
81	52001	440.4	0
81	52001	440.5	0
81	52001	440.6	0
81	52001	440.7	0
81	52001	440.8	0
81	52001	440.9	0
81	52001	441	0
81	52001	441.1	0
81	52001	441.2	0
81	52001	441.3	0
81	52001	441.4	0
81	52001	441.5	0
81	52001	441.6	0
81	52001	441.7	0
81	52001	441.8	0
81	52001	441.9	0
81	52001	442	0
81	52001	442.1	0
81	52001	442.2	0
81	52001	442.3	0
81	52001	442.4	0
81	52001	442.5	0
81	52001	442.6	0
81	52001	442.7	0
81	52001	442.8	0
81	52001	442.9	0
81	52001	443	0
81	52001	443.1	0
81	52001	443.2	0
81	52001	443.3	0
81	52001	443.4	0
81	52001	443.5	0
81	52001	443.6	0
81	52001	443.7	0
81	52001	443.8	0
81	52001	443.9	0
81	52001	444	0
81	52001	444.1	0
81	52001	444.2	0
81	52001	444.3	0
81	52001	444.4	0
81	52001	444.5	0
81	52001	444.6	0
81	52001	444.7	0
81	52001	444.8	0
81	52001	444.9	0
81	52001	445	0
81	52001	445.1	0
81	52001	445.2	0
81	52001	445.3	0
81	52001	445.4	0
81	52001	445.5	0
81	52001	445.6	0
81	52001	445.7	0
81	52001	445.8	0
81	52001	445.9	0
81	52001	446	0
81	52001	446.1	0
81	52001	446.2	0
81	52001	446.3	0
81	52001	446.4	0
81	52001	446.5	0
81	52001	446.6	0
81	52001	446.7	0
81	52001	446.8	0
81	52001	446.9	0
81	52001	447	0
81	52001	447.1	0
81	52001	447.2	0
81	52001	447.3	0
81	52001	447.4	0
81	52001	447.5	0
81	52001	447.6	0
81	52001	447.7	0
81	52001	447.8	0
81	52001	447.9	0
81	52001	448	0
81	52001	448.1	0
81	52001	448.2	0
81	52001	448.3	0
81	52001	448.4	0
81	52001	448.5	0
81	52001	448.6	0
81	52001	448.7	0
81	52001	448.8	0
81	52001	448.9	0
81	52001	449	0
81	52001	449.1	0
81	52001	449.2	0
81	52001	449.3	0
81	52001	449.4	0
81	52001	449.5	0
81	52001	449.6	0
81	52001	449.7	0
81	52001	449.8	0
81	52001	449.9	0
81	52001	450	0
81	52001	450.1	0
81	52001	450.2	0
81	52001	450.3	0
81	52001	450.4	0
81	52001	450.5	0
81	52001	450.6	0
81	52001	450.7	0
81	52001	450.8	0
81	52001	450.9	0
81	52001	451	0
81	52001	451.1	0
81	52001	451.2	0
81	52001	451.3	0
81	52001	451.4	0
81	52001	451.5	0
81	52001	451.6	0
81	52001	451.7	0
81	52001	451.8	0
81	52001	451.9	0
81	52001	452	0
81	52001	452.1	0
81	52001	452.2	0
81	52001	452.3	0
81	52001	452.4	0
81	52001	452.5	0
81	52001	452.6	0
81	52001	452.7	0
81	52001	452.8	0
81	52001	452.9	0
81	52001	453	0
81	52001	453.1	0
81	52001	453.2	0
81	52001	453.3	0
81	52001	453.4	0
81	52001	453.5	0
81	52001	453.6	0
81	52001	453.7	0
81	52001	453.8	0
81	52001	453.9	0
81	52001	454	0
81	52001	454.1	0
81	52001	454.2	0
81	52001	454.3	0
81	52001	454.4	0
81	52001	454.5	0
81	52001	454.6	0
81	52001	454.7	0
81	52001	454.8	0
81	52001	454.9	0
81	52001	455	0
81	52001	455.1	0
81	52001	455.2	0
81	52001	455.3	0
81	52001	455.4	0
81	52001	455.5	0
81	52001	455.6	0
81	52001	455.7	0
81	52001	455.8	0
81	52001	455.9	0
81	52001	456	0
81	52001	456.1	0
81	52001	456.2	0
81	52001	456.3	0
81	52001	456.4	0
81	52001	456.5	0
81	52001	456.6	0
81	52001	456.7	0
81	52001	456.8	0
81	52001	456.9	0
81	52001	457	0
81	52001	457.1	0
81	52001	457.2	0
81	52001	457.3	0
81	52001	457.4	0
81	52001	457.5	0
81	52001	457.6	0
81	52001	457.7	0
81	52001	457.8	0
81	52001	457.9	0
81	52001	458	0
81	52001	458.1	0
81	52001	458.2	0
81	52001	458.3	0
81	52001	458.4	0
81	52001	458.5	0
81	52001	458.6	0
81	52001	458.7	0
81	52001	458.8	0
81	52001	458.9	0
81	52001	459	0
81	52001	459.1	0
81	52001	459.2	0
81	52001	459.3	0
81	52001	459.4	0
81	52001	459.5	0
81	52001	459.6	0
81	52001	459.7	0
81	52001	459.8	0
81	52001	459.9	0
81	52001	460	0
81	52001	460.1	0
81	52001	460.2	0
81	52001	460.3	0
81	52001	460.4	0
81	52001	460.5	0
81	52001	460.6	0
81	52001	460.7	0
81	52001	460.8	0
81	52001	460.9	0
81	52001	461	0
81	52001	461.1	0
81	52001	461.2	0
81	52001	461.3	0
81	52001	461.4	0
81	52001	461.5	0
81	52001	461.6	0
81	52001	461.7	0
81	52001	461.8	0
81	52001	461.9	0
81	52001	462	0
81	52001	462.1	0
81	52001	462.2	0
81	52001	462.3	0
81	52001	462.4	0
81	52001	462.5	0
81	52001	462.6	0
81	52001	462.7	0
81	52001	462.8	0
81	52001	462.9	0
81	52001	463	0
81	52001	463.1	0
81	52001	463.2	0
81	52001	463.3	0
81	52001	463.4	0
81	52001	463.5	0
81	52001	463.6	0
81	52001	463.7	0
81	52001	463.8	0
81	52001	463.9	0
81	52001	464	0
81	52001	464.1	0
81	52001	464.2	0
81	52001	464.3	0
81	52001	464.4	0
81	52001	464.5	0
81	52001	464.6	0
81	52001	464.7	0
81	52001	464.8	0
81	52001	464.9	0
81	52001	465	0
81	52001	465.1	0
81	52001	465.2	0
81	52001	465.3	0
81	52001	465.4	0
81	52001	465.5	0
81	52001	465.6	0
81	52001	465.7	0
81	52001	465.8	0
81	52001	465.9	0
81	52001	466	0
81	52001	466.1	0
81	52001	466.2	0
81	52001	466.3	0
81	52001	466.4	0
81	52001	466.5	0
81	52001	466.6	0
81	52001	466.7	0
81	52001	466.8	0
81	52001	466.9	0
81	52001	467	0
81	52001	467.1	0
81	52001	467.2	0
81	52001	467.3	0
81	52001	467.4	0
81	52001	467.5	0
81	52001	467.6	0
81	52001	467.7	0
81	52001	467.8	0
81	52001	467.9	0
81	52001	468	0
81	52001	468.1	0
81	52001	468.2	0
81	52001	468.3	0
81	52001	468.4	0
81	52001	468.5	0
81	52001	468.6	0
81	52001	468.7	0
81	52001	468.8	0
81	52001	468.9	0
81	52001	469	0
81	52001	469.1	0
81	52001	469.2	0
81	52001	469.3	0
81	52001	469.4	0
81	52001	469.5	0
81	52001	469.6	0
81	52001	469.7	0
81	52001	469.8	0
81	52001	469.9	0
81	52001	470	0
81	52001	470.1	0
81	52001	470.2	0
81	52001	470.3	0
81	52001	470.4	0
81	52001	470.5	0
81	52001	470.6	0
81	52001	470.7	0
81	52001	470.8	0
81	52001	470.9	0
81	52001	471	0
81	52001	471.1	0
81	52001	471.2	0
81	52001	471.3	0
81	52001	471.4	0
81	52001	471.5	0
81	52001	471.6	0
81	52001	471.7	0
81	52001	471.8	0
81	52001	471.9	0
81	52001	472	0
81	52001	472.1	0
81	52001	472.2	0
81	52001	472.3	0
81	52001	472.4	0
81	52001	472.5	0
81	52001	472.6	0
81	52001	472.7	0
81	52001	472.8	0
81	52001	472.9	0
81	52001	473	0
81	52001	473.1	0
81	52001	473.2	0
81	52001	473.3	0
81	52001	473.4	0
81	52001	473.5	0
81	52001	473.6	0
81	52001	473.7	0
81	52001	473.8	0
81	52001	473.9	0
81	52001	474	0
81	52001	474.1	0
81	52001	474.2	0
81	52001	474.3	0
81	52001	474.4	0
81	52001	474.5	0
81	52001	474.6	0
81	52001	474.7	0
81	52001	474.8	0
81	52001	474.9	0
81	52001	475	0
81	52001	475.1	0
81	52001	475.2	0
81	52001	475.3	0
81	52001	475.4	0
81	52001	475.5	0
81	52001	475.6	0
81	52001	475.7	0
81	52001	475.8	0
81	52001	475.9	0
81	52001	476	0
81	52001	476.1	0
81	52001	476.2	0
81	52001	476.3	0
81	52001	476.4	0
81	52001	476.5	0
81	52001	476.6	0
81	52001	476.7	0
81	52001	476.8	0
81	52001	476.9	0
81	52001	477	0
81	52001	477.1	0
81	52001	477.2	0
81	52001	477.3	0
81	52001	477.4	0
81	52001	477.5	0
81	52001	477.6	0
81	52001	477.7	0
81	52001	477.8	0
81	52001	477.9	0
81	52001	478	0
81	52001	478.1	0
81	52001	478.2	0
81	52001	478.3	0
81	52001	478.4	0
81	52001	478.5	0
81	52001	478.6	0
81	52001	478.7	0
81	52001	478.8	0
81	52001	478.9	0
81	52001	479	0
81	52001	479.1	0
81	52001	479.2	0
81	52001	479.3	0
81	52001	479.4	0
81	52001	479.5	0
81	52001	479.6	0
81	52001	479.7	0
81	52001	479.8	0
81	52001	479.9	0
81	52001	480	0
81	52001	480.1	0
81	52001	480.2	0
81	52001	480.3	0
81	52001	480.4	0
81	52001	480.5	0
81	52001	480.6	0
81	52001	480.7	0
81	52001	480.8	0
81	52001	480.9	0
81	52001	481	0
81	52001	481.1	0
81	52001	481.2	0
81	52001	481.3	0
81	52001	481.4	0
81	52001	481.5	0
81	52001	481.6	0
81	52001	481.7	0
81	52001	481.8	0
81	52001	481.9	0
81	52001	482	0
81	52001	482.1	0
81	52001	482.2	0
81	52001	482.3	0
81	52001	482.4	0
81	52001	482.5	0
81	52001	482.6	0
81	52001	482.7	0
81	52001	482.8	0
81	52001	482.9	0
81	52001	483	0
81	52001	483.1	0
81	52001	483.2	0
81	52001	483.3	0
81	52001	483.4	0
81	52001	483.5	0
81	52001	483.6	0
81	52001	483.7	0
81	52001	483.8	0
81	52001	483.9	0
81	52001	484	0
81	52001	484.1	0
81	52001	484.2	0
81	52001	484.3	0
81	52001	484.4	0
81	52001	484.5	0
81	52001	484.6	0
81	52001	484.7	0
81	52001	484.8	0
81	52001	484.9	0
81	52001	485	0
81	52001	485.1	0
81	52001	485.2	0
81	52001	485.3	0
81	52001	485.4	0
81	52001	485.5	0
81	52001	485.6	0
81	52001	485.7	0
81	52001	485.8	0
81	52001	485.9	0
81	52001	486	0
81	52001	486.1	0
81	52001	486.2	0
81	52001	486.3	0
81	52001	486.4	0
81	52001	486.5	0
81	52001	486.6	0
81	52001	486.7	0
81	52001	486.8	0
81	52001	486.9	0
81	52001	487	0
81	52001	487.1	0
81	52001	487.2	0
81	52001	487.3	0
81	52001	487.4	0
81	52001	487.5	0
81	52001	487.6	0
81	52001	487.7	0
81	52001	487.8	0
81	52001	487.9	0
81	52001	488	0
81	52001	488.1	0
81	52001	488.2	0
81	52001	488.3	0
81	52001	488.4	0
81	52001	488.5	0
81	52001	488.6	0
81	52001	488.7	0
81	52001	488.8	0
81	52001	488.9	0
81	52001	489	0
81	52001	489.1	0
81	52001	489.2	0
81	52001	489.3	0
81	52001	489.4	0
81	52001	489.5	0
81	52001	489.6	0
81	52001	489.7	0
81	52001	489.8	0
81	52001	489.9	0
81	52001	490	0
81	52001	490.1	0
81	52001	490.2	0
81	52001	490.3	0
81	52001	490.4	0
81	52001	490.5	0
81	52001	490.6	0
81	52001	490.7	0
81	52001	490.8	0
81	52001	490.9	0
81	52001	491	0
81	52001	491.1	0
81	52001	491.2	0
81	52001	491.3	0
81	52001	491.4	0
81	52001	491.5	0
81	52001	491.6	0
81	52001	491.7	0
81	52001	491.8	0
81	52001	491.9	0
81	52001	492	0
81	52001	492.1	0
81	52001	492.2	0
81	52001	492.3	0
81	52001	492.4	0
81	52001	492.5	0
81	52001	492.6	0
81	52001	492.7	0
81	52001	492.8	0
81	52001	492.9	0
81	52001	493	0
81	52001	493.1	0
81	52001	493.2	0
81	52001	493.3	0
81	52001	493.4	0
81	52001	493.5	0
81	52001	493.6	0
81	52001	493.7	0
81	52001	493.8	0
81	52001	493.9	0
81	52001	494	0
81	52001	494.1	0
81	52001	494.2	0
81	52001	494.3	0
81	52001	494.4	0
81	52001	494.5	0
81	52001	494.6	0
81	52001	494.7	0
81	52001	494.8	0
81	52001	494.9	0
81	52001	495	0
81	52001	495.1	0
81	52001	495.2	0
81	52001	495.3	0
81	52001	495.4	0
81	52001	495.5	0
81	52001	495.6	0
81	52001	495.7	0
81	52001	495.8	0
81	52001	495.9	0
81	52001	496	0
81	52001	496.1	0
81	52001	496.2	0
81	52001	496.3	0
81	52001	496.4	0
81	52001	496.5	0
81	52001	496.6	0
81	52001	496.7	0
81	52001	496.8	0
81	52001	496.9	0
81	52001	497	0
81	52001	497.1	0
81	52001	497.2	0
81	52001	497.3	0
81	52001	497.4	0
81	52001	497.5	0
81	52001	497.6	0
81	52001	497.7	0
81	52001	497.8	0
81	52001	497.9	0
81	52001	498	0
81	52001	498.1	0
81	52001	498.2	0
81	52001	498.3	0
81	52001	498.4	0
81	52001	498.5	0
81	52001	498.6	0
81	52001	498.7	0
81	52001	498.8	0
81	52001	498.9	0
81	52001	499	0
81	52001	499.1	0
81	52001	499.2	0
81	52001	499.3	0
81	52001	499.4	0
81	52001	499.5	0
81	52001	499.6	0
81	52001	499.7	0
81	52001	499.8	0
81	52001	499.9	0
81	52001	500	0

