file 34268984 1655839291                                        
version 2
run FanetSecureGrayHole-0-20220621-21:20:45-32248
attr configname FanetSecureGrayHole
attr datetime 20220621-21:20:45
attr experiment FanetSecureGrayHole
attr inifile omnetpp.ini
attr iterationvars ""
attr iterationvarsf ""
attr measurement ""
attr network FanetSecureGrayHole
attr processid 32248
attr repetition 0
attr replication #0
attr resultdir results
attr runnumber 0
attr seedset 0
param *.host[0].numApps 1
param *.host[0].app[0].typename "\"UdpBasicApp\""
param *.host[0].app[0].startTime 15s
param *.host[0].app[0].destAddresses "\"host[20] host[1]\""
param *.host[0].app[0].destPort 5000
param *.host[0].app[0].messageLength 1000B
param *.host[0].app[0].sendInterval exponential(1s)
param *.host[0].app[0].packetName "\"UDPdata\""
param *.host[20].numApps 1
param *.host[20].app[0].typename "\"UdpSink\""
param *.host[20].app[0].localPort 5000
param *.host[1].numApps 1
param *.host[1].app[0].typename "\"UdpSink\""
param *.host[1].app[0].localPort 5000
param **.wlan[*].bitrate 24Mbps
param *.configurator.addStaticRoutes false
param **.netmaskRoutes "\"\""
param **.arp.typename "\"GlobalArp\""
param *.host*.wlan[0].typename "\"AckingWirelessInterface\""
param *.host*.wlan[0].radio.transmitter.communicationRange 300m
param *.host*.wlan[0].radio.displayCommunicationRange false
param *.visualizer.osgVisualizer.typename "\"IntegratedOsgVisualizer\""
param *.visualizer.osgVisualizer.sceneVisualizer.clearColor "\"skyblue\""
param *.visualizer.osgVisualizer.sceneVisualizer.sceneImage "\"showcases/desert\""
param *.visualizer.osgVisualizer.sceneVisualizer.sceneImageSize 5000m
param *.visualizer.osgVisualizer.sceneVisualizer.axisLength 1000m
param *.visualizer.osgVisualizer.sceneVisualizer.sceneMinX -2000m
param *.visualizer.osgVisualizer.sceneVisualizer.sceneMinY -2000m
param *.visualizer.osgVisualizer.sceneVisualizer.sceneMinZ 0m
param *.visualizer.osgVisualizer.sceneVisualizer.sceneMaxX 3000m
param *.visualizer.osgVisualizer.sceneVisualizer.sceneMaxY 3000m
param *.visualizer.osgVisualizer.sceneVisualizer.sceneMaxZ 1000m
param *.visualizer.osgVisualizer.networkNodeVisualizer.displayModuleName false
param *.visualizer.*.mobilityVisualizer.displayMobility true
param *.visualizer.*.mobilityVisualizer.displayPositions true
param *.visualizer.*.mobilityVisualizer.displayOrientations true
param *.visualizer.*.mobilityVisualizer.displayVelocities true
param *.visualizer.*.mobilityVisualizer.displayMovementTrails true
param *.visualizer.*.mobilityVisualizer.animationSpeed 1
param *.visualizer.*.packetDropVisualizer.displayPacketDrops false
param *.visualizer.*.packetDropVisualizer.labelFormat "\"%n/reason: %r\""
param *.visualizer.*.packetDropVisualizer.fadeOutTime 10s
param **.constraintAreaMinX 0m
param **.constraintAreaMinY 0m
param **.constraintAreaMinZ 50m
param **.constraintAreaMaxX 1000m
param **.constraintAreaMaxY 800m
param **.constraintAreaMaxZ 200m
param *.visualizer.*.mediumVisualizer.signalPropagationAnimationSpeed 500/3e8
param *.visualizer.*.mediumVisualizer.signalTransmissionAnimationSpeed 50000/3e8
param *.visualizer.*.mediumVisualizer.displaySignals false
param *.visualizer.*.mediumVisualizer.displayTransmissions false
param *.visualizer.*.mediumVisualizer.displayReceptions false
param *.visualizer.*.mediumVisualizer.transmissionPlacementPriority 10
param *.visualizer.*.mediumVisualizer.receptionPlacementPriority 10
param *.visualizer.*.mediumVisualizer.displaySignals false
param *.visualizer.*.mediumVisualizer.signalFadingDistance 50m
param *.visualizer.*.mediumVisualizer.signalRingSize 50m
param *.visualizer.osgVisualizer.mediumVisualizer.signalShape "\"both\""
param *.host[*].osgModel "\"3d/drone.ive.100.scale.0,0,90.rot\""
param *.host[*].mobility.typename "\"TurtleMobility\""
param *.attacker[*].mobility.typename "\"TurtleMobility\""
param *.attacker[*].mobility.turtleScript "xmldoc(\"movements.xml\")"
param *.host[*].mobility.turtleScript "xmldoc(\"movements.xml\")"
param *.attacker*.wlan[0].typename "\"AckingWirelessInterface\""
param *.attacker*.wlan[0].radio.transmitter.communicationRange 300m
param *.attacker*.wlan[0].radio.displayCommunicationRange false
param **.wlan[0].radio.energyConsumer.typename "\"StateBasedEpEnergyConsumer\""
param **.wlan[0].radio.energyConsumer.offPowerConsumption 0mW
param **.wlan[0].radio.energyConsumer.sleepPowerConsumption 1mW
param **.wlan[0].radio.energyConsumer.switchingPowerConsumption 1mW
param **.wlan[0].radio.energyConsumer.receiverIdlePowerConsumption 2mW
param **.wlan[0].radio.energyConsumer.receiverBusyPowerConsumption 5mW
param **.wlan[0].radio.energyConsumer.receiverReceivingPowerConsumption 10mW
param **.wlan[0].radio.energyConsumer.transmitterIdlePowerConsumption 2mW
param **.wlan[0].radio.energyConsumer.transmitterTransmittingPowerConsumption 100mW
param **.energyStorage.typename "\"IdealEpEnergyStorage\""
param **.wlan[0].radio.displayInterferenceRange true
param *.visualizer.mediumVisualizer.displaySignals false

vector 0 FanetSecureGrayHole.host[0].energyStorage powerConsumption:vector ETV
attr interpolationmode sample-hold
attr source powerConsumptionChanged
attr title "Power consumption, vector"
vector 1 FanetSecureGrayHole.host[1].energyStorage powerConsumption:vector ETV
attr interpolationmode sample-hold
attr source powerConsumptionChanged
attr title "Power consumption, vector"
vector 2 FanetSecureGrayHole.host[2].energyStorage powerConsumption:vector ETV
attr interpolationmode sample-hold
attr source powerConsumptionChanged
attr title "Power consumption, vector"
vector 3 FanetSecureGrayHole.host[3].energyStorage powerConsumption:vector ETV
attr interpolationmode sample-hold
attr source powerConsumptionChanged
attr title "Power consumption, vector"
vector 4 FanetSecureGrayHole.host[4].energyStorage powerConsumption:vector ETV
attr interpolationmode sample-hold
attr source powerConsumptionChanged
attr title "Power consumption, vector"
vector 5 FanetSecureGrayHole.host[5].energyStorage powerConsumption:vector ETV
attr interpolationmode sample-hold
attr source powerConsumptionChanged
attr title "Power consumption, vector"
vector 6 FanetSecureGrayHole.host[6].energyStorage powerConsumption:vector ETV
attr interpolationmode sample-hold
attr source powerConsumptionChanged
attr title "Power consumption, vector"
vector 7 FanetSecureGrayHole.host[7].energyStorage powerConsumption:vector ETV
attr interpolationmode sample-hold
attr source powerConsumptionChanged
attr title "Power consumption, vector"
vector 8 FanetSecureGrayHole.host[8].energyStorage powerConsumption:vector ETV
attr interpolationmode sample-hold
attr source powerConsumptionChanged
attr title "Power consumption, vector"
vector 9 FanetSecureGrayHole.host[9].energyStorage powerConsumption:vector ETV
attr interpolationmode sample-hold
attr source powerConsumptionChanged
attr title "Power consumption, vector"
vector 10 FanetSecureGrayHole.host[10].energyStorage powerConsumption:vector ETV
attr interpolationmode sample-hold
attr source powerConsumptionChanged
attr title "Power consumption, vector"
vector 11 FanetSecureGrayHole.host[11].energyStorage powerConsumption:vector ETV
attr interpolationmode sample-hold
attr source powerConsumptionChanged
attr title "Power consumption, vector"
vector 12 FanetSecureGrayHole.host[12].energyStorage powerConsumption:vector ETV
attr interpolationmode sample-hold
attr source powerConsumptionChanged
attr title "Power consumption, vector"
vector 13 FanetSecureGrayHole.host[13].energyStorage powerConsumption:vector ETV
attr interpolationmode sample-hold
attr source powerConsumptionChanged
attr title "Power consumption, vector"
vector 14 FanetSecureGrayHole.host[14].energyStorage powerConsumption:vector ETV
attr interpolationmode sample-hold
attr source powerConsumptionChanged
attr title "Power consumption, vector"
vector 15 FanetSecureGrayHole.host[15].energyStorage powerConsumption:vector ETV
attr interpolationmode sample-hold
attr source powerConsumptionChanged
attr title "Power consumption, vector"
vector 16 FanetSecureGrayHole.host[16].energyStorage powerConsumption:vector ETV
attr interpolationmode sample-hold
attr source powerConsumptionChanged
attr title "Power consumption, vector"
vector 17 FanetSecureGrayHole.host[17].energyStorage powerConsumption:vector ETV
attr interpolationmode sample-hold
attr source powerConsumptionChanged
attr title "Power consumption, vector"
vector 18 FanetSecureGrayHole.host[18].energyStorage powerConsumption:vector ETV
attr interpolationmode sample-hold
attr source powerConsumptionChanged
attr title "Power consumption, vector"
vector 19 FanetSecureGrayHole.host[19].energyStorage powerConsumption:vector ETV
attr interpolationmode sample-hold
attr source powerConsumptionChanged
attr title "Power consumption, vector"
vector 20 FanetSecureGrayHole.host[20].energyStorage powerConsumption:vector ETV
attr interpolationmode sample-hold
attr source powerConsumptionChanged
attr title "Power consumption, vector"
vector 21 FanetSecureGrayHole.attacker[0].energyStorage powerConsumption:vector ETV
attr interpolationmode sample-hold
attr source powerConsumptionChanged
attr title "Power consumption, vector"
vector 22 FanetSecureGrayHole.host[0].wlan[0].radio radioMode:vector ETV
attr interpolationmode sample-hold
attr source radioModeChanged
attr title "Radio mode, vector"
vector 23 FanetSecureGrayHole.host[0].wlan[0].radio.energyConsumer powerConsumption:vector ETV
attr interpolationmode sample-hold
attr source powerConsumptionChanged
attr title "Power consumption, vector"
vector 24 FanetSecureGrayHole.host[1].wlan[0].radio radioMode:vector ETV
attr interpolationmode sample-hold
attr source radioModeChanged
attr title "Radio mode, vector"
vector 25 FanetSecureGrayHole.host[1].wlan[0].radio.energyConsumer powerConsumption:vector ETV
attr interpolationmode sample-hold
attr source powerConsumptionChanged
attr title "Power consumption, vector"
vector 26 FanetSecureGrayHole.host[2].wlan[0].radio radioMode:vector ETV
attr interpolationmode sample-hold
attr source radioModeChanged
attr title "Radio mode, vector"
vector 27 FanetSecureGrayHole.host[2].wlan[0].radio.energyConsumer powerConsumption:vector ETV
attr interpolationmode sample-hold
attr source powerConsumptionChanged
attr title "Power consumption, vector"
vector 28 FanetSecureGrayHole.host[3].wlan[0].radio radioMode:vector ETV
attr interpolationmode sample-hold
attr source radioModeChanged
attr title "Radio mode, vector"
vector 29 FanetSecureGrayHole.host[3].wlan[0].radio.energyConsumer powerConsumption:vector ETV
attr interpolationmode sample-hold
attr source powerConsumptionChanged
attr title "Power consumption, vector"
vector 30 FanetSecureGrayHole.host[4].wlan[0].radio radioMode:vector ETV
attr interpolationmode sample-hold
attr source radioModeChanged
attr title "Radio mode, vector"
vector 31 FanetSecureGrayHole.host[4].wlan[0].radio.energyConsumer powerConsumption:vector ETV
attr interpolationmode sample-hold
attr source powerConsumptionChanged
attr title "Power consumption, vector"
vector 32 FanetSecureGrayHole.host[5].wlan[0].radio radioMode:vector ETV
attr interpolationmode sample-hold
attr source radioModeChanged
attr title "Radio mode, vector"
vector 33 FanetSecureGrayHole.host[5].wlan[0].radio.energyConsumer powerConsumption:vector ETV
attr interpolationmode sample-hold
attr source powerConsumptionChanged
attr title "Power consumption, vector"
vector 34 FanetSecureGrayHole.host[6].wlan[0].radio radioMode:vector ETV
attr interpolationmode sample-hold
attr source radioModeChanged
attr title "Radio mode, vector"
vector 35 FanetSecureGrayHole.host[6].wlan[0].radio.energyConsumer powerConsumption:vector ETV
attr interpolationmode sample-hold
attr source powerConsumptionChanged
attr title "Power consumption, vector"
vector 36 FanetSecureGrayHole.host[7].wlan[0].radio radioMode:vector ETV
attr interpolationmode sample-hold
attr source radioModeChanged
attr title "Radio mode, vector"
vector 37 FanetSecureGrayHole.host[7].wlan[0].radio.energyConsumer powerConsumption:vector ETV
attr interpolationmode sample-hold
attr source powerConsumptionChanged
attr title "Power consumption, vector"
vector 38 FanetSecureGrayHole.host[8].wlan[0].radio radioMode:vector ETV
attr interpolationmode sample-hold
attr source radioModeChanged
attr title "Radio mode, vector"
vector 39 FanetSecureGrayHole.host[8].wlan[0].radio.energyConsumer powerConsumption:vector ETV
attr interpolationmode sample-hold
attr source powerConsumptionChanged
attr title "Power consumption, vector"
vector 40 FanetSecureGrayHole.host[9].wlan[0].radio radioMode:vector ETV
attr interpolationmode sample-hold
attr source radioModeChanged
attr title "Radio mode, vector"
vector 41 FanetSecureGrayHole.host[9].wlan[0].radio.energyConsumer powerConsumption:vector ETV
attr interpolationmode sample-hold
attr source powerConsumptionChanged
attr title "Power consumption, vector"
vector 42 FanetSecureGrayHole.host[10].wlan[0].radio radioMode:vector ETV
attr interpolationmode sample-hold
attr source radioModeChanged
attr title "Radio mode, vector"
vector 43 FanetSecureGrayHole.host[10].wlan[0].radio.energyConsumer powerConsumption:vector ETV
attr interpolationmode sample-hold
attr source powerConsumptionChanged
attr title "Power consumption, vector"
vector 44 FanetSecureGrayHole.host[11].wlan[0].radio radioMode:vector ETV
attr interpolationmode sample-hold
attr source radioModeChanged
attr title "Radio mode, vector"
vector 45 FanetSecureGrayHole.host[11].wlan[0].radio.energyConsumer powerConsumption:vector ETV
attr interpolationmode sample-hold
attr source powerConsumptionChanged
attr title "Power consumption, vector"
vector 46 FanetSecureGrayHole.host[12].wlan[0].radio radioMode:vector ETV
attr interpolationmode sample-hold
attr source radioModeChanged
attr title "Radio mode, vector"
vector 47 FanetSecureGrayHole.host[12].wlan[0].radio.energyConsumer powerConsumption:vector ETV
attr interpolationmode sample-hold
attr source powerConsumptionChanged
attr title "Power consumption, vector"
vector 48 FanetSecureGrayHole.host[13].wlan[0].radio radioMode:vector ETV
attr interpolationmode sample-hold
attr source radioModeChanged
attr title "Radio mode, vector"
vector 49 FanetSecureGrayHole.host[13].wlan[0].radio.energyConsumer powerConsumption:vector ETV
attr interpolationmode sample-hold
attr source powerConsumptionChanged
attr title "Power consumption, vector"
vector 50 FanetSecureGrayHole.host[14].wlan[0].radio radioMode:vector ETV
attr interpolationmode sample-hold
attr source radioModeChanged
attr title "Radio mode, vector"
vector 51 FanetSecureGrayHole.host[14].wlan[0].radio.energyConsumer powerConsumption:vector ETV
attr interpolationmode sample-hold
attr source powerConsumptionChanged
attr title "Power consumption, vector"
vector 52 FanetSecureGrayHole.host[15].wlan[0].radio radioMode:vector ETV
attr interpolationmode sample-hold
attr source radioModeChanged
attr title "Radio mode, vector"
vector 53 FanetSecureGrayHole.host[15].wlan[0].radio.energyConsumer powerConsumption:vector ETV
attr interpolationmode sample-hold
attr source powerConsumptionChanged
attr title "Power consumption, vector"
vector 54 FanetSecureGrayHole.host[16].wlan[0].radio radioMode:vector ETV
attr interpolationmode sample-hold
attr source radioModeChanged
attr title "Radio mode, vector"
vector 55 FanetSecureGrayHole.host[16].wlan[0].radio.energyConsumer powerConsumption:vector ETV
attr interpolationmode sample-hold
attr source powerConsumptionChanged
attr title "Power consumption, vector"
vector 56 FanetSecureGrayHole.host[17].wlan[0].radio radioMode:vector ETV
attr interpolationmode sample-hold
attr source radioModeChanged
attr title "Radio mode, vector"
vector 57 FanetSecureGrayHole.host[17].wlan[0].radio.energyConsumer powerConsumption:vector ETV
attr interpolationmode sample-hold
attr source powerConsumptionChanged
attr title "Power consumption, vector"
vector 58 FanetSecureGrayHole.host[18].wlan[0].radio radioMode:vector ETV
attr interpolationmode sample-hold
attr source radioModeChanged
attr title "Radio mode, vector"
vector 59 FanetSecureGrayHole.host[18].wlan[0].radio.energyConsumer powerConsumption:vector ETV
attr interpolationmode sample-hold
attr source powerConsumptionChanged
attr title "Power consumption, vector"
vector 60 FanetSecureGrayHole.host[19].wlan[0].radio radioMode:vector ETV
attr interpolationmode sample-hold
attr source radioModeChanged
attr title "Radio mode, vector"
vector 61 FanetSecureGrayHole.host[19].wlan[0].radio.energyConsumer powerConsumption:vector ETV
attr interpolationmode sample-hold
attr source powerConsumptionChanged
attr title "Power consumption, vector"
vector 62 FanetSecureGrayHole.host[20].wlan[0].radio radioMode:vector ETV
attr interpolationmode sample-hold
attr source radioModeChanged
attr title "Radio mode, vector"
vector 63 FanetSecureGrayHole.host[20].wlan[0].radio.energyConsumer powerConsumption:vector ETV
attr interpolationmode sample-hold
attr source powerConsumptionChanged
attr title "Power consumption, vector"
vector 64 FanetSecureGrayHole.attacker[0].wlan[0].radio radioMode:vector ETV
attr interpolationmode sample-hold
attr source radioModeChanged
attr title "Radio mode, vector"
vector 65 FanetSecureGrayHole.attacker[0].wlan[0].radio.energyConsumer powerConsumption:vector ETV
attr interpolationmode sample-hold
attr source powerConsumptionChanged
attr title "Power consumption, vector"
vector 66 FanetSecureGrayHole.host[0].wlan[0].radio receptionState:vector ETV
attr interpolationmode sample-hold
attr source receptionStateChanged
attr title "Radio reception state, vector"
vector 67 FanetSecureGrayHole.host[0].wlan[0].radio transmissionState:vector ETV
attr interpolationmode sample-hold
attr source transmissionStateChanged
attr title "Radio transmission state, vector"
vector 68 FanetSecureGrayHole.host[1].wlan[0].radio receptionState:vector ETV
attr interpolationmode sample-hold
attr source receptionStateChanged
attr title "Radio reception state, vector"
vector 69 FanetSecureGrayHole.host[1].wlan[0].radio transmissionState:vector ETV
attr interpolationmode sample-hold
attr source transmissionStateChanged
attr title "Radio transmission state, vector"
vector 70 FanetSecureGrayHole.host[2].wlan[0].radio receptionState:vector ETV
attr interpolationmode sample-hold
attr source receptionStateChanged
attr title "Radio reception state, vector"
vector 71 FanetSecureGrayHole.host[2].wlan[0].radio transmissionState:vector ETV
attr interpolationmode sample-hold
attr source transmissionStateChanged
attr title "Radio transmission state, vector"
vector 72 FanetSecureGrayHole.host[3].wlan[0].radio receptionState:vector ETV
attr interpolationmode sample-hold
attr source receptionStateChanged
attr title "Radio reception state, vector"
vector 73 FanetSecureGrayHole.host[3].wlan[0].radio transmissionState:vector ETV
attr interpolationmode sample-hold
attr source transmissionStateChanged
attr title "Radio transmission state, vector"
vector 74 FanetSecureGrayHole.host[4].wlan[0].radio receptionState:vector ETV
attr interpolationmode sample-hold
attr source receptionStateChanged
attr title "Radio reception state, vector"
vector 75 FanetSecureGrayHole.host[4].wlan[0].radio transmissionState:vector ETV
attr interpolationmode sample-hold
attr source transmissionStateChanged
attr title "Radio transmission state, vector"
vector 76 FanetSecureGrayHole.host[5].wlan[0].radio receptionState:vector ETV
attr interpolationmode sample-hold
attr source receptionStateChanged
attr title "Radio reception state, vector"
vector 77 FanetSecureGrayHole.host[5].wlan[0].radio transmissionState:vector ETV
attr interpolationmode sample-hold
attr source transmissionStateChanged
attr title "Radio transmission state, vector"
vector 78 FanetSecureGrayHole.host[6].wlan[0].radio receptionState:vector ETV
attr interpolationmode sample-hold
attr source receptionStateChanged
attr title "Radio reception state, vector"
vector 79 FanetSecureGrayHole.host[6].wlan[0].radio transmissionState:vector ETV
attr interpolationmode sample-hold
attr source transmissionStateChanged
attr title "Radio transmission state, vector"
vector 80 FanetSecureGrayHole.host[7].wlan[0].radio receptionState:vector ETV
attr interpolationmode sample-hold
attr source receptionStateChanged
attr title "Radio reception state, vector"
vector 81 FanetSecureGrayHole.host[7].wlan[0].radio transmissionState:vector ETV
attr interpolationmode sample-hold
attr source transmissionStateChanged
attr title "Radio transmission state, vector"
vector 82 FanetSecureGrayHole.host[8].wlan[0].radio receptionState:vector ETV
attr interpolationmode sample-hold
attr source receptionStateChanged
attr title "Radio reception state, vector"
vector 83 FanetSecureGrayHole.host[8].wlan[0].radio transmissionState:vector ETV
attr interpolationmode sample-hold
attr source transmissionStateChanged
attr title "Radio transmission state, vector"
vector 84 FanetSecureGrayHole.host[9].wlan[0].radio receptionState:vector ETV
attr interpolationmode sample-hold
attr source receptionStateChanged
attr title "Radio reception state, vector"
vector 85 FanetSecureGrayHole.host[9].wlan[0].radio transmissionState:vector ETV
attr interpolationmode sample-hold
attr source transmissionStateChanged
attr title "Radio transmission state, vector"
vector 86 FanetSecureGrayHole.host[10].wlan[0].radio receptionState:vector ETV
attr interpolationmode sample-hold
attr source receptionStateChanged
attr title "Radio reception state, vector"
vector 87 FanetSecureGrayHole.host[10].wlan[0].radio transmissionState:vector ETV
attr interpolationmode sample-hold
attr source transmissionStateChanged
attr title "Radio transmission state, vector"
vector 88 FanetSecureGrayHole.host[11].wlan[0].radio receptionState:vector ETV
attr interpolationmode sample-hold
attr source receptionStateChanged
attr title "Radio reception state, vector"
vector 89 FanetSecureGrayHole.host[11].wlan[0].radio transmissionState:vector ETV
attr interpolationmode sample-hold
attr source transmissionStateChanged
attr title "Radio transmission state, vector"
vector 90 FanetSecureGrayHole.host[12].wlan[0].radio receptionState:vector ETV
attr interpolationmode sample-hold
attr source receptionStateChanged
attr title "Radio reception state, vector"
vector 91 FanetSecureGrayHole.host[12].wlan[0].radio transmissionState:vector ETV
attr interpolationmode sample-hold
attr source transmissionStateChanged
attr title "Radio transmission state, vector"
vector 92 FanetSecureGrayHole.host[13].wlan[0].radio receptionState:vector ETV
attr interpolationmode sample-hold
attr source receptionStateChanged
attr title "Radio reception state, vector"
vector 93 FanetSecureGrayHole.host[13].wlan[0].radio transmissionState:vector ETV
attr interpolationmode sample-hold
attr source transmissionStateChanged
attr title "Radio transmission state, vector"
vector 94 FanetSecureGrayHole.host[14].wlan[0].radio receptionState:vector ETV
attr interpolationmode sample-hold
attr source receptionStateChanged
attr title "Radio reception state, vector"
vector 95 FanetSecureGrayHole.host[14].wlan[0].radio transmissionState:vector ETV
attr interpolationmode sample-hold
attr source transmissionStateChanged
attr title "Radio transmission state, vector"
vector 96 FanetSecureGrayHole.host[15].wlan[0].radio receptionState:vector ETV
attr interpolationmode sample-hold
attr source receptionStateChanged
attr title "Radio reception state, vector"
vector 97 FanetSecureGrayHole.host[15].wlan[0].radio transmissionState:vector ETV
attr interpolationmode sample-hold
attr source transmissionStateChanged
attr title "Radio transmission state, vector"
vector 98 FanetSecureGrayHole.host[16].wlan[0].radio receptionState:vector ETV
attr interpolationmode sample-hold
attr source receptionStateChanged
attr title "Radio reception state, vector"
vector 99 FanetSecureGrayHole.host[16].wlan[0].radio transmissionState:vector ETV
attr interpolationmode sample-hold
attr source transmissionStateChanged
attr title "Radio transmission state, vector"
vector 100 FanetSecureGrayHole.host[17].wlan[0].radio receptionState:vector ETV
attr interpolationmode sample-hold
attr source receptionStateChanged
attr title "Radio reception state, vector"
vector 101 FanetSecureGrayHole.host[17].wlan[0].radio transmissionState:vector ETV
attr interpolationmode sample-hold
attr source transmissionStateChanged
attr title "Radio transmission state, vector"
vector 102 FanetSecureGrayHole.host[18].wlan[0].radio receptionState:vector ETV
attr interpolationmode sample-hold
attr source receptionStateChanged
attr title "Radio reception state, vector"
vector 103 FanetSecureGrayHole.host[18].wlan[0].radio transmissionState:vector ETV
attr interpolationmode sample-hold
attr source transmissionStateChanged
attr title "Radio transmission state, vector"
vector 104 FanetSecureGrayHole.host[19].wlan[0].radio receptionState:vector ETV
attr interpolationmode sample-hold
attr source receptionStateChanged
attr title "Radio reception state, vector"
vector 105 FanetSecureGrayHole.host[19].wlan[0].radio transmissionState:vector ETV
attr interpolationmode sample-hold
attr source transmissionStateChanged
attr title "Radio transmission state, vector"
vector 106 FanetSecureGrayHole.host[20].wlan[0].radio receptionState:vector ETV
attr interpolationmode sample-hold
attr source receptionStateChanged
attr title "Radio reception state, vector"
vector 107 FanetSecureGrayHole.host[20].wlan[0].radio transmissionState:vector ETV
attr interpolationmode sample-hold
attr source transmissionStateChanged
attr title "Radio transmission state, vector"
vector 108 FanetSecureGrayHole.attacker[0].wlan[0].radio receptionState:vector ETV
attr interpolationmode sample-hold
attr source receptionStateChanged
attr title "Radio reception state, vector"
vector 109 FanetSecureGrayHole.attacker[0].wlan[0].radio transmissionState:vector ETV
attr interpolationmode sample-hold
attr source transmissionStateChanged
attr title "Radio transmission state, vector"
vector 110 FanetSecureGrayHole.host[15].wlan[0].mac rcvdPkFromHl:vector(packetBytes) ETV
attr interpolationmode none
attr source packetReceivedFromUpper
attr title "packets received from higher layer, vector(packetBytes)"
vector 111 FanetSecureGrayHole.host[15].wlan[0].mac.queue packetPushed:vector(packetBytes) ETV
attr interpolationmode none
attr title "packet pushed, vector(packetBytes)"
vector 112 FanetSecureGrayHole.host[15].wlan[0].mac.queue queueLength:vector ETV
attr interpolationmode sample-hold
attr source "count(packetPushed) - count(packetPopped) - count(packetRemoved) - count(packetDropped)"
attr title "queue length, vector"
vector 113 FanetSecureGrayHole.host[15].wlan[0].mac.queue packetPopped:vector(packetBytes) ETV
attr interpolationmode none
attr title "packet popped, vector(packetBytes)"
vector 114 FanetSecureGrayHole.host[15].wlan[0].mac.queue queueingTime:vector ETV
attr interpolationmode none
attr source queueingTime(packetPopped)
attr title "queueing times, vector"
attr unit s
vector 115 FanetSecureGrayHole.host[15].wlan[0].mac sentDownPk:vector(packetBytes) ETV
attr interpolationmode none
attr source packetSentToLower
attr title "packets sent to lower layer, vector(packetBytes)"
vector 116 FanetSecureGrayHole.host[15].energyStorage residualEnergyCapacity:vector ETV
attr interpolationmode linear
attr source residualEnergyCapacityChanged
attr title "Residual energy capacity, vector"
vector 117 FanetSecureGrayHole.host[1].energyStorage residualEnergyCapacity:vector ETV
attr interpolationmode linear
attr source residualEnergyCapacityChanged
attr title "Residual energy capacity, vector"
vector 118 FanetSecureGrayHole.host[20].energyStorage residualEnergyCapacity:vector ETV
attr interpolationmode linear
attr source residualEnergyCapacityChanged
attr title "Residual energy capacity, vector"
vector 119 FanetSecureGrayHole.host[1].wlan[0].mac rcvdPkFromLl:vector(packetBytes) ETV
attr interpolationmode none
attr source packetReceivedFromLower
attr title "packets received from lower layer, vector(packetBytes)"
vector 120 FanetSecureGrayHole.host[1].wlan[0].mac passedUpPk:vector(packetBytes) ETV
attr interpolationmode none
attr source packetSentToUpper
attr title "packets passed to higher layer, vector(packetBytes)"
vector 121 FanetSecureGrayHole.host[20].wlan[0].mac rcvdPkFromLl:vector(packetBytes) ETV
attr interpolationmode none
attr source packetReceivedFromLower
attr title "packets received from lower layer, vector(packetBytes)"
vector 122 FanetSecureGrayHole.host[20].wlan[0].mac passedUpPk:vector(packetBytes) ETV
attr interpolationmode none
attr source packetSentToUpper
attr title "packets passed to higher layer, vector(packetBytes)"
vector 123 FanetSecureGrayHole.host[17].wlan[0].mac rcvdPkFromHl:vector(packetBytes) ETV
attr interpolationmode none
attr source packetReceivedFromUpper
attr title "packets received from higher layer, vector(packetBytes)"
vector 124 FanetSecureGrayHole.host[17].wlan[0].mac.queue packetPushed:vector(packetBytes) ETV
attr interpolationmode none
attr title "packet pushed, vector(packetBytes)"
vector 125 FanetSecureGrayHole.host[17].wlan[0].mac.queue queueLength:vector ETV
attr interpolationmode sample-hold
attr source "count(packetPushed) - count(packetPopped) - count(packetRemoved) - count(packetDropped)"
attr title "queue length, vector"
vector 126 FanetSecureGrayHole.host[17].wlan[0].mac.queue packetPopped:vector(packetBytes) ETV
attr interpolationmode none
attr title "packet popped, vector(packetBytes)"
vector 127 FanetSecureGrayHole.host[17].wlan[0].mac.queue queueingTime:vector ETV
attr interpolationmode none
attr source queueingTime(packetPopped)
attr title "queueing times, vector"
attr unit s
vector 128 FanetSecureGrayHole.host[17].wlan[0].mac sentDownPk:vector(packetBytes) ETV
attr interpolationmode none
attr source packetSentToLower
attr title "packets sent to lower layer, vector(packetBytes)"
vector 129 FanetSecureGrayHole.host[17].energyStorage residualEnergyCapacity:vector ETV
attr interpolationmode linear
attr source residualEnergyCapacityChanged
attr title "Residual energy capacity, vector"
vector 130 FanetSecureGrayHole.host[10].energyStorage residualEnergyCapacity:vector ETV
attr interpolationmode linear
attr source residualEnergyCapacityChanged
attr title "Residual energy capacity, vector"
vector 131 FanetSecureGrayHole.host[8].energyStorage residualEnergyCapacity:vector ETV
attr interpolationmode linear
attr source residualEnergyCapacityChanged
attr title "Residual energy capacity, vector"
vector 132 FanetSecureGrayHole.host[5].energyStorage residualEnergyCapacity:vector ETV
attr interpolationmode linear
attr source residualEnergyCapacityChanged
attr title "Residual energy capacity, vector"
vector 133 FanetSecureGrayHole.host[12].energyStorage residualEnergyCapacity:vector ETV
attr interpolationmode linear
attr source residualEnergyCapacityChanged
attr title "Residual energy capacity, vector"
vector 134 FanetSecureGrayHole.attacker[0].energyStorage residualEnergyCapacity:vector ETV
attr interpolationmode linear
attr source residualEnergyCapacityChanged
attr title "Residual energy capacity, vector"
vector 135 FanetSecureGrayHole.host[10].wlan[0].mac rcvdPkFromLl:vector(packetBytes) ETV
attr interpolationmode none
attr source packetReceivedFromLower
attr title "packets received from lower layer, vector(packetBytes)"
vector 136 FanetSecureGrayHole.host[10].wlan[0].mac passedUpPk:vector(packetBytes) ETV
attr interpolationmode none
attr source packetSentToUpper
attr title "packets passed to higher layer, vector(packetBytes)"
vector 137 FanetSecureGrayHole.host[8].wlan[0].mac rcvdPkFromLl:vector(packetBytes) ETV
attr interpolationmode none
attr source packetReceivedFromLower
attr title "packets received from lower layer, vector(packetBytes)"
vector 138 FanetSecureGrayHole.host[8].wlan[0].mac passedUpPk:vector(packetBytes) ETV
attr interpolationmode none
attr source packetSentToUpper
attr title "packets passed to higher layer, vector(packetBytes)"
vector 139 FanetSecureGrayHole.host[5].wlan[0].mac rcvdPkFromLl:vector(packetBytes) ETV
attr interpolationmode none
attr source packetReceivedFromLower
attr title "packets received from lower layer, vector(packetBytes)"
vector 140 FanetSecureGrayHole.host[5].wlan[0].mac passedUpPk:vector(packetBytes) ETV
attr interpolationmode none
attr source packetSentToUpper
attr title "packets passed to higher layer, vector(packetBytes)"
vector 141 FanetSecureGrayHole.host[12].wlan[0].mac rcvdPkFromLl:vector(packetBytes) ETV
attr interpolationmode none
attr source packetReceivedFromLower
attr title "packets received from lower layer, vector(packetBytes)"
vector 142 FanetSecureGrayHole.host[12].wlan[0].mac passedUpPk:vector(packetBytes) ETV
attr interpolationmode none
attr source packetSentToUpper
attr title "packets passed to higher layer, vector(packetBytes)"
vector 143 FanetSecureGrayHole.attacker[0].wlan[0].mac rcvdPkFromLl:vector(packetBytes) ETV
attr interpolationmode none
attr source packetReceivedFromLower
attr title "packets received from lower layer, vector(packetBytes)"
vector 144 FanetSecureGrayHole.attacker[0].wlan[0].mac passedUpPk:vector(packetBytes) ETV
attr interpolationmode none
attr source packetSentToUpper
attr title "packets passed to higher layer, vector(packetBytes)"
vector 145 FanetSecureGrayHole.host[13].wlan[0].mac rcvdPkFromHl:vector(packetBytes) ETV
attr interpolationmode none
attr source packetReceivedFromUpper
attr title "packets received from higher layer, vector(packetBytes)"
vector 146 FanetSecureGrayHole.host[13].wlan[0].mac.queue packetPushed:vector(packetBytes) ETV
attr interpolationmode none
attr title "packet pushed, vector(packetBytes)"
vector 147 FanetSecureGrayHole.host[13].wlan[0].mac.queue queueLength:vector ETV
attr interpolationmode sample-hold
attr source "count(packetPushed) - count(packetPopped) - count(packetRemoved) - count(packetDropped)"
attr title "queue length, vector"
vector 148 FanetSecureGrayHole.host[13].wlan[0].mac.queue packetPopped:vector(packetBytes) ETV
attr interpolationmode none
attr title "packet popped, vector(packetBytes)"
vector 149 FanetSecureGrayHole.host[13].wlan[0].mac.queue queueingTime:vector ETV
attr interpolationmode none
attr source queueingTime(packetPopped)
attr title "queueing times, vector"
attr unit s
vector 150 FanetSecureGrayHole.host[13].wlan[0].mac sentDownPk:vector(packetBytes) ETV
attr interpolationmode none
attr source packetSentToLower
attr title "packets sent to lower layer, vector(packetBytes)"
vector 151 FanetSecureGrayHole.host[13].energyStorage residualEnergyCapacity:vector ETV
attr interpolationmode linear
attr source residualEnergyCapacityChanged
attr title "Residual energy capacity, vector"
vector 152 FanetSecureGrayHole.host[0].energyStorage residualEnergyCapacity:vector ETV
attr interpolationmode linear
attr source residualEnergyCapacityChanged
attr title "Residual energy capacity, vector"
vector 153 FanetSecureGrayHole.host[9].energyStorage residualEnergyCapacity:vector ETV
attr interpolationmode linear
attr source residualEnergyCapacityChanged
attr title "Residual energy capacity, vector"
vector 154 FanetSecureGrayHole.host[2].energyStorage residualEnergyCapacity:vector ETV
attr interpolationmode linear
attr source residualEnergyCapacityChanged
attr title "Residual energy capacity, vector"
vector 155 FanetSecureGrayHole.host[3].energyStorage residualEnergyCapacity:vector ETV
attr interpolationmode linear
attr source residualEnergyCapacityChanged
attr title "Residual energy capacity, vector"
vector 156 FanetSecureGrayHole.host[16].energyStorage residualEnergyCapacity:vector ETV
attr interpolationmode linear
attr source residualEnergyCapacityChanged
attr title "Residual energy capacity, vector"
vector 157 FanetSecureGrayHole.host[0].wlan[0].mac rcvdPkFromLl:vector(packetBytes) ETV
attr interpolationmode none
attr source packetReceivedFromLower
attr title "packets received from lower layer, vector(packetBytes)"
vector 158 FanetSecureGrayHole.host[0].wlan[0].mac passedUpPk:vector(packetBytes) ETV
attr interpolationmode none
attr source packetSentToUpper
attr title "packets passed to higher layer, vector(packetBytes)"
vector 159 FanetSecureGrayHole.host[9].wlan[0].mac rcvdPkFromLl:vector(packetBytes) ETV
attr interpolationmode none
attr source packetReceivedFromLower
attr title "packets received from lower layer, vector(packetBytes)"
vector 160 FanetSecureGrayHole.host[9].wlan[0].mac passedUpPk:vector(packetBytes) ETV
attr interpolationmode none
attr source packetSentToUpper
attr title "packets passed to higher layer, vector(packetBytes)"
vector 161 FanetSecureGrayHole.host[2].wlan[0].mac rcvdPkFromLl:vector(packetBytes) ETV
attr interpolationmode none
attr source packetReceivedFromLower
attr title "packets received from lower layer, vector(packetBytes)"
vector 162 FanetSecureGrayHole.host[2].wlan[0].mac passedUpPk:vector(packetBytes) ETV
attr interpolationmode none
attr source packetSentToUpper
attr title "packets passed to higher layer, vector(packetBytes)"
vector 163 FanetSecureGrayHole.host[3].wlan[0].mac rcvdPkFromLl:vector(packetBytes) ETV
attr interpolationmode none
attr source packetReceivedFromLower
attr title "packets received from lower layer, vector(packetBytes)"
vector 164 FanetSecureGrayHole.host[3].wlan[0].mac passedUpPk:vector(packetBytes) ETV
attr interpolationmode none
attr source packetSentToUpper
attr title "packets passed to higher layer, vector(packetBytes)"
vector 165 FanetSecureGrayHole.host[16].wlan[0].mac rcvdPkFromLl:vector(packetBytes) ETV
attr interpolationmode none
attr source packetReceivedFromLower
attr title "packets received from lower layer, vector(packetBytes)"
vector 166 FanetSecureGrayHole.host[16].wlan[0].mac passedUpPk:vector(packetBytes) ETV
attr interpolationmode none
attr source packetSentToUpper
attr title "packets passed to higher layer, vector(packetBytes)"
vector 167 FanetSecureGrayHole.host[18].wlan[0].mac rcvdPkFromHl:vector(packetBytes) ETV
attr interpolationmode none
attr source packetReceivedFromUpper
attr title "packets received from higher layer, vector(packetBytes)"
vector 168 FanetSecureGrayHole.host[18].wlan[0].mac.queue packetPushed:vector(packetBytes) ETV
attr interpolationmode none
attr title "packet pushed, vector(packetBytes)"
vector 169 FanetSecureGrayHole.host[18].wlan[0].mac.queue queueLength:vector ETV
attr interpolationmode sample-hold
attr source "count(packetPushed) - count(packetPopped) - count(packetRemoved) - count(packetDropped)"
attr title "queue length, vector"
vector 170 FanetSecureGrayHole.host[18].wlan[0].mac.queue packetPopped:vector(packetBytes) ETV
attr interpolationmode none
attr title "packet popped, vector(packetBytes)"
vector 171 FanetSecureGrayHole.host[18].wlan[0].mac.queue queueingTime:vector ETV
attr interpolationmode none
attr source queueingTime(packetPopped)
attr title "queueing times, vector"
attr unit s
vector 172 FanetSecureGrayHole.host[18].wlan[0].mac sentDownPk:vector(packetBytes) ETV
attr interpolationmode none
attr source packetSentToLower
attr title "packets sent to lower layer, vector(packetBytes)"
vector 173 FanetSecureGrayHole.host[18].energyStorage residualEnergyCapacity:vector ETV
attr interpolationmode linear
attr source residualEnergyCapacityChanged
attr title "Residual energy capacity, vector"
vector 174 FanetSecureGrayHole.host[14].energyStorage residualEnergyCapacity:vector ETV
attr interpolationmode linear
attr source residualEnergyCapacityChanged
attr title "Residual energy capacity, vector"
vector 175 FanetSecureGrayHole.host[19].energyStorage residualEnergyCapacity:vector ETV
attr interpolationmode linear
attr source residualEnergyCapacityChanged
attr title "Residual energy capacity, vector"
vector 176 FanetSecureGrayHole.host[14].wlan[0].mac rcvdPkFromLl:vector(packetBytes) ETV
attr interpolationmode none
attr source packetReceivedFromLower
attr title "packets received from lower layer, vector(packetBytes)"
vector 177 FanetSecureGrayHole.host[14].wlan[0].mac passedUpPk:vector(packetBytes) ETV
attr interpolationmode none
attr source packetSentToUpper
attr title "packets passed to higher layer, vector(packetBytes)"
vector 178 FanetSecureGrayHole.host[19].wlan[0].mac rcvdPkFromLl:vector(packetBytes) ETV
attr interpolationmode none
attr source packetReceivedFromLower
attr title "packets received from lower layer, vector(packetBytes)"
vector 179 FanetSecureGrayHole.host[19].wlan[0].mac passedUpPk:vector(packetBytes) ETV
attr interpolationmode none
attr source packetSentToUpper
attr title "packets passed to higher layer, vector(packetBytes)"
vector 180 FanetSecureGrayHole.host[11].wlan[0].mac rcvdPkFromHl:vector(packetBytes) ETV
attr interpolationmode none
attr source packetReceivedFromUpper
attr title "packets received from higher layer, vector(packetBytes)"
vector 181 FanetSecureGrayHole.host[11].wlan[0].mac.queue packetPushed:vector(packetBytes) ETV
attr interpolationmode none
attr title "packet pushed, vector(packetBytes)"
vector 182 FanetSecureGrayHole.host[11].wlan[0].mac.queue queueLength:vector ETV
attr interpolationmode sample-hold
attr source "count(packetPushed) - count(packetPopped) - count(packetRemoved) - count(packetDropped)"
attr title "queue length, vector"
vector 183 FanetSecureGrayHole.host[11].wlan[0].mac.queue packetPopped:vector(packetBytes) ETV
attr interpolationmode none
attr title "packet popped, vector(packetBytes)"
vector 184 FanetSecureGrayHole.host[11].wlan[0].mac.queue queueingTime:vector ETV
attr interpolationmode none
attr source queueingTime(packetPopped)
attr title "queueing times, vector"
attr unit s
vector 185 FanetSecureGrayHole.host[11].wlan[0].mac sentDownPk:vector(packetBytes) ETV
attr interpolationmode none
attr source packetSentToLower
attr title "packets sent to lower layer, vector(packetBytes)"
vector 186 FanetSecureGrayHole.host[11].energyStorage residualEnergyCapacity:vector ETV
attr interpolationmode linear
attr source residualEnergyCapacityChanged
attr title "Residual energy capacity, vector"
vector 187 FanetSecureGrayHole.host[4].energyStorage residualEnergyCapacity:vector ETV
attr interpolationmode linear
attr source residualEnergyCapacityChanged
attr title "Residual energy capacity, vector"
vector 188 FanetSecureGrayHole.host[4].wlan[0].mac rcvdPkFromLl:vector(packetBytes) ETV
attr interpolationmode none
attr source packetReceivedFromLower
attr title "packets received from lower layer, vector(packetBytes)"
vector 189 FanetSecureGrayHole.host[4].wlan[0].mac passedUpPk:vector(packetBytes) ETV
attr interpolationmode none
attr source packetSentToUpper
attr title "packets passed to higher layer, vector(packetBytes)"
vector 190 FanetSecureGrayHole.host[8].wlan[0].mac rcvdPkFromHl:vector(packetBytes) ETV
attr interpolationmode none
attr source packetReceivedFromUpper
attr title "packets received from higher layer, vector(packetBytes)"
vector 191 FanetSecureGrayHole.host[8].wlan[0].mac.queue packetPushed:vector(packetBytes) ETV
attr interpolationmode none
attr title "packet pushed, vector(packetBytes)"
vector 192 FanetSecureGrayHole.host[8].wlan[0].mac.queue queueLength:vector ETV
attr interpolationmode sample-hold
attr source "count(packetPushed) - count(packetPopped) - count(packetRemoved) - count(packetDropped)"
attr title "queue length, vector"
vector 193 FanetSecureGrayHole.host[8].wlan[0].mac.queue packetPopped:vector(packetBytes) ETV
attr interpolationmode none
attr title "packet popped, vector(packetBytes)"
vector 194 FanetSecureGrayHole.host[8].wlan[0].mac.queue queueingTime:vector ETV
attr interpolationmode none
attr source queueingTime(packetPopped)
attr title "queueing times, vector"
attr unit s
vector 195 FanetSecureGrayHole.host[8].wlan[0].mac sentDownPk:vector(packetBytes) ETV
attr interpolationmode none
attr source packetSentToLower
attr title "packets sent to lower layer, vector(packetBytes)"
vector 196 FanetSecureGrayHole.host[17].wlan[0].mac rcvdPkFromLl:vector(packetBytes) ETV
attr interpolationmode none
attr source packetReceivedFromLower
attr title "packets received from lower layer, vector(packetBytes)"
vector 197 FanetSecureGrayHole.host[17].wlan[0].mac passedUpPk:vector(packetBytes) ETV
attr interpolationmode none
attr source packetSentToUpper
attr title "packets passed to higher layer, vector(packetBytes)"
vector 198 FanetSecureGrayHole.host[12].wlan[0].mac rcvdPkFromHl:vector(packetBytes) ETV
attr interpolationmode none
attr source packetReceivedFromUpper
attr title "packets received from higher layer, vector(packetBytes)"
vector 199 FanetSecureGrayHole.host[12].wlan[0].mac.queue packetPushed:vector(packetBytes) ETV
attr interpolationmode none
attr title "packet pushed, vector(packetBytes)"
vector 200 FanetSecureGrayHole.host[12].wlan[0].mac.queue queueLength:vector ETV
attr interpolationmode sample-hold
attr source "count(packetPushed) - count(packetPopped) - count(packetRemoved) - count(packetDropped)"
attr title "queue length, vector"
vector 201 FanetSecureGrayHole.host[12].wlan[0].mac.queue packetPopped:vector(packetBytes) ETV
attr interpolationmode none
attr title "packet popped, vector(packetBytes)"
vector 202 FanetSecureGrayHole.host[12].wlan[0].mac.queue queueingTime:vector ETV
attr interpolationmode none
attr source queueingTime(packetPopped)
attr title "queueing times, vector"
attr unit s
vector 203 FanetSecureGrayHole.host[12].wlan[0].mac sentDownPk:vector(packetBytes) ETV
attr interpolationmode none
attr source packetSentToLower
attr title "packets sent to lower layer, vector(packetBytes)"
vector 204 FanetSecureGrayHole.host[18].wlan[0].mac rcvdPkFromLl:vector(packetBytes) ETV
attr interpolationmode none
attr source packetReceivedFromLower
attr title "packets received from lower layer, vector(packetBytes)"
vector 205 FanetSecureGrayHole.host[18].wlan[0].mac passedUpPk:vector(packetBytes) ETV
attr interpolationmode none
attr source packetSentToUpper
attr title "packets passed to higher layer, vector(packetBytes)"
vector 206 FanetSecureGrayHole.host[19].wlan[0].mac rcvdPkFromHl:vector(packetBytes) ETV
attr interpolationmode none
attr source packetReceivedFromUpper
attr title "packets received from higher layer, vector(packetBytes)"
vector 207 FanetSecureGrayHole.host[19].wlan[0].mac.queue packetPushed:vector(packetBytes) ETV
attr interpolationmode none
attr title "packet pushed, vector(packetBytes)"
vector 208 FanetSecureGrayHole.host[19].wlan[0].mac.queue queueLength:vector ETV
attr interpolationmode sample-hold
attr source "count(packetPushed) - count(packetPopped) - count(packetRemoved) - count(packetDropped)"
attr title "queue length, vector"
vector 209 FanetSecureGrayHole.host[19].wlan[0].mac.queue packetPopped:vector(packetBytes) ETV
attr interpolationmode none
attr title "packet popped, vector(packetBytes)"
vector 210 FanetSecureGrayHole.host[19].wlan[0].mac.queue queueingTime:vector ETV
attr interpolationmode none
attr source queueingTime(packetPopped)
attr title "queueing times, vector"
attr unit s
vector 211 FanetSecureGrayHole.host[19].wlan[0].mac sentDownPk:vector(packetBytes) ETV
attr interpolationmode none
attr source packetSentToLower
attr title "packets sent to lower layer, vector(packetBytes)"
vector 212 FanetSecureGrayHole.host[11].wlan[0].mac rcvdPkFromLl:vector(packetBytes) ETV
attr interpolationmode none
attr source packetReceivedFromLower
attr title "packets received from lower layer, vector(packetBytes)"
vector 213 FanetSecureGrayHole.host[11].wlan[0].mac passedUpPk:vector(packetBytes) ETV
attr interpolationmode none
attr source packetSentToUpper
attr title "packets passed to higher layer, vector(packetBytes)"
vector 214 FanetSecureGrayHole.host[6].wlan[0].mac rcvdPkFromHl:vector(packetBytes) ETV
attr interpolationmode none
attr source packetReceivedFromUpper
attr title "packets received from higher layer, vector(packetBytes)"
vector 215 FanetSecureGrayHole.host[6].wlan[0].mac.queue packetPushed:vector(packetBytes) ETV
attr interpolationmode none
attr title "packet pushed, vector(packetBytes)"
vector 216 FanetSecureGrayHole.host[6].wlan[0].mac.queue queueLength:vector ETV
attr interpolationmode sample-hold
attr source "count(packetPushed) - count(packetPopped) - count(packetRemoved) - count(packetDropped)"
attr title "queue length, vector"
vector 217 FanetSecureGrayHole.host[6].wlan[0].mac.queue packetPopped:vector(packetBytes) ETV
attr interpolationmode none
attr title "packet popped, vector(packetBytes)"
vector 218 FanetSecureGrayHole.host[6].wlan[0].mac.queue queueingTime:vector ETV
attr interpolationmode none
attr source queueingTime(packetPopped)
attr title "queueing times, vector"
attr unit s
vector 219 FanetSecureGrayHole.host[6].wlan[0].mac sentDownPk:vector(packetBytes) ETV
attr interpolationmode none
attr source packetSentToLower
attr title "packets sent to lower layer, vector(packetBytes)"
vector 220 FanetSecureGrayHole.host[6].energyStorage residualEnergyCapacity:vector ETV
attr interpolationmode linear
attr source residualEnergyCapacityChanged
attr title "Residual energy capacity, vector"
vector 221 FanetSecureGrayHole.host[7].energyStorage residualEnergyCapacity:vector ETV
attr interpolationmode linear
attr source residualEnergyCapacityChanged
attr title "Residual energy capacity, vector"
vector 222 FanetSecureGrayHole.host[7].wlan[0].mac rcvdPkFromLl:vector(packetBytes) ETV
attr interpolationmode none
attr source packetReceivedFromLower
attr title "packets received from lower layer, vector(packetBytes)"
vector 223 FanetSecureGrayHole.host[7].wlan[0].mac passedUpPk:vector(packetBytes) ETV
attr interpolationmode none
attr source packetSentToUpper
attr title "packets passed to higher layer, vector(packetBytes)"
vector 224 FanetSecureGrayHole.host[0].wlan[0].mac rcvdPkFromHl:vector(packetBytes) ETV
attr interpolationmode none
attr source packetReceivedFromUpper
attr title "packets received from higher layer, vector(packetBytes)"
vector 225 FanetSecureGrayHole.host[0].wlan[0].mac.queue packetPushed:vector(packetBytes) ETV
attr interpolationmode none
attr title "packet pushed, vector(packetBytes)"
vector 226 FanetSecureGrayHole.host[0].wlan[0].mac.queue queueLength:vector ETV
attr interpolationmode sample-hold
attr source "count(packetPushed) - count(packetPopped) - count(packetRemoved) - count(packetDropped)"
attr title "queue length, vector"
vector 227 FanetSecureGrayHole.host[0].wlan[0].mac.queue packetPopped:vector(packetBytes) ETV
attr interpolationmode none
attr title "packet popped, vector(packetBytes)"
vector 228 FanetSecureGrayHole.host[0].wlan[0].mac.queue queueingTime:vector ETV
attr interpolationmode none
attr source queueingTime(packetPopped)
attr title "queueing times, vector"
attr unit s
vector 229 FanetSecureGrayHole.host[0].wlan[0].mac sentDownPk:vector(packetBytes) ETV
attr interpolationmode none
attr source packetSentToLower
attr title "packets sent to lower layer, vector(packetBytes)"
vector 230 FanetSecureGrayHole.host[13].wlan[0].mac rcvdPkFromLl:vector(packetBytes) ETV
attr interpolationmode none
attr source packetReceivedFromLower
attr title "packets received from lower layer, vector(packetBytes)"
vector 231 FanetSecureGrayHole.host[13].wlan[0].mac passedUpPk:vector(packetBytes) ETV
attr interpolationmode none
attr source packetSentToUpper
attr title "packets passed to higher layer, vector(packetBytes)"
vector 232 FanetSecureGrayHole.host[1].wlan[0].mac rcvdPkFromHl:vector(packetBytes) ETV
attr interpolationmode none
attr source packetReceivedFromUpper
attr title "packets received from higher layer, vector(packetBytes)"
vector 233 FanetSecureGrayHole.host[1].wlan[0].mac.queue packetPushed:vector(packetBytes) ETV
attr interpolationmode none
attr title "packet pushed, vector(packetBytes)"
vector 234 FanetSecureGrayHole.host[1].wlan[0].mac.queue queueLength:vector ETV
attr interpolationmode sample-hold
attr source "count(packetPushed) - count(packetPopped) - count(packetRemoved) - count(packetDropped)"
attr title "queue length, vector"
vector 235 FanetSecureGrayHole.host[1].wlan[0].mac.queue packetPopped:vector(packetBytes) ETV
attr interpolationmode none
attr title "packet popped, vector(packetBytes)"
vector 236 FanetSecureGrayHole.host[1].wlan[0].mac.queue queueingTime:vector ETV
attr interpolationmode none
attr source queueingTime(packetPopped)
attr title "queueing times, vector"
attr unit s
vector 237 FanetSecureGrayHole.host[1].wlan[0].mac sentDownPk:vector(packetBytes) ETV
attr interpolationmode none
attr source packetSentToLower
attr title "packets sent to lower layer, vector(packetBytes)"
vector 238 FanetSecureGrayHole.host[15].wlan[0].mac rcvdPkFromLl:vector(packetBytes) ETV
attr interpolationmode none
attr source packetReceivedFromLower
attr title "packets received from lower layer, vector(packetBytes)"
vector 239 FanetSecureGrayHole.host[15].wlan[0].mac passedUpPk:vector(packetBytes) ETV
attr interpolationmode none
attr source packetSentToUpper
attr title "packets passed to higher layer, vector(packetBytes)"
vector 240 FanetSecureGrayHole.host[4].wlan[0].mac rcvdPkFromHl:vector(packetBytes) ETV
attr interpolationmode none
attr source packetReceivedFromUpper
attr title "packets received from higher layer, vector(packetBytes)"
vector 241 FanetSecureGrayHole.host[4].wlan[0].mac.queue packetPushed:vector(packetBytes) ETV
attr interpolationmode none
attr title "packet pushed, vector(packetBytes)"
vector 242 FanetSecureGrayHole.host[4].wlan[0].mac.queue queueLength:vector ETV
attr interpolationmode sample-hold
attr source "count(packetPushed) - count(packetPopped) - count(packetRemoved) - count(packetDropped)"
attr title "queue length, vector"
vector 243 FanetSecureGrayHole.host[4].wlan[0].mac.queue packetPopped:vector(packetBytes) ETV
attr interpolationmode none
attr title "packet popped, vector(packetBytes)"
vector 244 FanetSecureGrayHole.host[4].wlan[0].mac.queue queueingTime:vector ETV
attr interpolationmode none
attr source queueingTime(packetPopped)
attr title "queueing times, vector"
attr unit s
vector 245 FanetSecureGrayHole.host[4].wlan[0].mac sentDownPk:vector(packetBytes) ETV
attr interpolationmode none
attr source packetSentToLower
attr title "packets sent to lower layer, vector(packetBytes)"
vector 246 FanetSecureGrayHole.host[9].wlan[0].mac rcvdPkFromHl:vector(packetBytes) ETV
attr interpolationmode none
attr source packetReceivedFromUpper
attr title "packets received from higher layer, vector(packetBytes)"
vector 247 FanetSecureGrayHole.host[9].wlan[0].mac.queue packetPushed:vector(packetBytes) ETV
attr interpolationmode none
attr title "packet pushed, vector(packetBytes)"
vector 248 FanetSecureGrayHole.host[9].wlan[0].mac.queue queueLength:vector ETV
attr interpolationmode sample-hold
attr source "count(packetPushed) - count(packetPopped) - count(packetRemoved) - count(packetDropped)"
attr title "queue length, vector"
vector 249 FanetSecureGrayHole.host[9].wlan[0].mac.queue packetPopped:vector(packetBytes) ETV
attr interpolationmode none
attr title "packet popped, vector(packetBytes)"
vector 250 FanetSecureGrayHole.host[9].wlan[0].mac.queue queueingTime:vector ETV
attr interpolationmode none
attr source queueingTime(packetPopped)
attr title "queueing times, vector"
attr unit s
vector 251 FanetSecureGrayHole.host[9].wlan[0].mac sentDownPk:vector(packetBytes) ETV
attr interpolationmode none
attr source packetSentToLower
attr title "packets sent to lower layer, vector(packetBytes)"
vector 252 FanetSecureGrayHole.host[10].wlan[0].mac rcvdPkFromHl:vector(packetBytes) ETV
attr interpolationmode none
attr source packetReceivedFromUpper
attr title "packets received from higher layer, vector(packetBytes)"
vector 253 FanetSecureGrayHole.host[10].wlan[0].mac.queue packetPushed:vector(packetBytes) ETV
attr interpolationmode none
attr title "packet pushed, vector(packetBytes)"
vector 254 FanetSecureGrayHole.host[10].wlan[0].mac.queue queueLength:vector ETV
attr interpolationmode sample-hold
attr source "count(packetPushed) - count(packetPopped) - count(packetRemoved) - count(packetDropped)"
attr title "queue length, vector"
vector 255 FanetSecureGrayHole.host[10].wlan[0].mac.queue packetPopped:vector(packetBytes) ETV
attr interpolationmode none
attr title "packet popped, vector(packetBytes)"
vector 256 FanetSecureGrayHole.host[10].wlan[0].mac.queue queueingTime:vector ETV
attr interpolationmode none
attr source queueingTime(packetPopped)
attr title "queueing times, vector"
attr unit s
vector 257 FanetSecureGrayHole.host[10].wlan[0].mac sentDownPk:vector(packetBytes) ETV
attr interpolationmode none
attr source packetSentToLower
attr title "packets sent to lower layer, vector(packetBytes)"
vector 258 FanetSecureGrayHole.host[2].wlan[0].mac rcvdPkFromHl:vector(packetBytes) ETV
attr interpolationmode none
attr source packetReceivedFromUpper
attr title "packets received from higher layer, vector(packetBytes)"
vector 259 FanetSecureGrayHole.host[2].wlan[0].mac.queue packetPushed:vector(packetBytes) ETV
attr interpolationmode none
attr title "packet pushed, vector(packetBytes)"
vector 260 FanetSecureGrayHole.host[2].wlan[0].mac.queue queueLength:vector ETV
attr interpolationmode sample-hold
attr source "count(packetPushed) - count(packetPopped) - count(packetRemoved) - count(packetDropped)"
attr title "queue length, vector"
vector 261 FanetSecureGrayHole.host[2].wlan[0].mac.queue packetPopped:vector(packetBytes) ETV
attr interpolationmode none
attr title "packet popped, vector(packetBytes)"
vector 262 FanetSecureGrayHole.host[2].wlan[0].mac.queue queueingTime:vector ETV
attr interpolationmode none
attr source queueingTime(packetPopped)
attr title "queueing times, vector"
attr unit s
vector 263 FanetSecureGrayHole.host[2].wlan[0].mac sentDownPk:vector(packetBytes) ETV
attr interpolationmode none
attr source packetSentToLower
attr title "packets sent to lower layer, vector(packetBytes)"
vector 264 FanetSecureGrayHole.host[20].wlan[0].mac rcvdPkFromHl:vector(packetBytes) ETV
attr interpolationmode none
attr source packetReceivedFromUpper
attr title "packets received from higher layer, vector(packetBytes)"
vector 265 FanetSecureGrayHole.host[20].wlan[0].mac.queue packetPushed:vector(packetBytes) ETV
attr interpolationmode none
attr title "packet pushed, vector(packetBytes)"
vector 266 FanetSecureGrayHole.host[20].wlan[0].mac.queue queueLength:vector ETV
attr interpolationmode sample-hold
attr source "count(packetPushed) - count(packetPopped) - count(packetRemoved) - count(packetDropped)"
attr title "queue length, vector"
vector 267 FanetSecureGrayHole.host[20].wlan[0].mac.queue packetPopped:vector(packetBytes) ETV
attr interpolationmode none
attr title "packet popped, vector(packetBytes)"
vector 268 FanetSecureGrayHole.host[20].wlan[0].mac.queue queueingTime:vector ETV
attr interpolationmode none
attr source queueingTime(packetPopped)
attr title "queueing times, vector"
attr unit s
vector 269 FanetSecureGrayHole.host[20].wlan[0].mac sentDownPk:vector(packetBytes) ETV
attr interpolationmode none
attr source packetSentToLower
attr title "packets sent to lower layer, vector(packetBytes)"
vector 270 FanetSecureGrayHole.host[6].wlan[0].mac rcvdPkFromLl:vector(packetBytes) ETV
attr interpolationmode none
attr source packetReceivedFromLower
attr title "packets received from lower layer, vector(packetBytes)"
vector 271 FanetSecureGrayHole.host[6].wlan[0].mac passedUpPk:vector(packetBytes) ETV
attr interpolationmode none
attr source packetSentToUpper
attr title "packets passed to higher layer, vector(packetBytes)"
vector 272 FanetSecureGrayHole.attacker[0].wlan[0].mac rcvdPkFromHl:vector(packetBytes) ETV
attr interpolationmode none
attr source packetReceivedFromUpper
attr title "packets received from higher layer, vector(packetBytes)"
vector 273 FanetSecureGrayHole.attacker[0].wlan[0].mac.queue packetPushed:vector(packetBytes) ETV
attr interpolationmode none
attr title "packet pushed, vector(packetBytes)"
vector 274 FanetSecureGrayHole.attacker[0].wlan[0].mac.queue queueLength:vector ETV
attr interpolationmode sample-hold
attr source "count(packetPushed) - count(packetPopped) - count(packetRemoved) - count(packetDropped)"
attr title "queue length, vector"
vector 275 FanetSecureGrayHole.attacker[0].wlan[0].mac.queue packetPopped:vector(packetBytes) ETV
attr interpolationmode none
attr title "packet popped, vector(packetBytes)"
vector 276 FanetSecureGrayHole.attacker[0].wlan[0].mac.queue queueingTime:vector ETV
attr interpolationmode none
attr source queueingTime(packetPopped)
attr title "queueing times, vector"
attr unit s
vector 277 FanetSecureGrayHole.attacker[0].wlan[0].mac sentDownPk:vector(packetBytes) ETV
attr interpolationmode none
attr source packetSentToLower
attr title "packets sent to lower layer, vector(packetBytes)"
vector 278 FanetSecureGrayHole.host[3].wlan[0].mac rcvdPkFromHl:vector(packetBytes) ETV
attr interpolationmode none
attr source packetReceivedFromUpper
attr title "packets received from higher layer, vector(packetBytes)"
vector 279 FanetSecureGrayHole.host[3].wlan[0].mac.queue packetPushed:vector(packetBytes) ETV
attr interpolationmode none
attr title "packet pushed, vector(packetBytes)"
vector 280 FanetSecureGrayHole.host[3].wlan[0].mac.queue queueLength:vector ETV
attr interpolationmode sample-hold
attr source "count(packetPushed) - count(packetPopped) - count(packetRemoved) - count(packetDropped)"
attr title "queue length, vector"
vector 281 FanetSecureGrayHole.host[3].wlan[0].mac.queue packetPopped:vector(packetBytes) ETV
attr interpolationmode none
attr title "packet popped, vector(packetBytes)"
vector 282 FanetSecureGrayHole.host[3].wlan[0].mac.queue queueingTime:vector ETV
attr interpolationmode none
attr source queueingTime(packetPopped)
attr title "queueing times, vector"
attr unit s
vector 283 FanetSecureGrayHole.host[3].wlan[0].mac sentDownPk:vector(packetBytes) ETV
attr interpolationmode none
attr source packetSentToLower
attr title "packets sent to lower layer, vector(packetBytes)"
vector 284 FanetSecureGrayHole.host[7].wlan[0].mac rcvdPkFromHl:vector(packetBytes) ETV
attr interpolationmode none
attr source packetReceivedFromUpper
attr title "packets received from higher layer, vector(packetBytes)"
vector 285 FanetSecureGrayHole.host[7].wlan[0].mac.queue packetPushed:vector(packetBytes) ETV
attr interpolationmode none
attr title "packet pushed, vector(packetBytes)"
vector 286 FanetSecureGrayHole.host[7].wlan[0].mac.queue queueLength:vector ETV
attr interpolationmode sample-hold
attr source "count(packetPushed) - count(packetPopped) - count(packetRemoved) - count(packetDropped)"
attr title "queue length, vector"
vector 287 FanetSecureGrayHole.host[7].wlan[0].mac.queue packetPopped:vector(packetBytes) ETV
attr interpolationmode none
attr title "packet popped, vector(packetBytes)"
vector 288 FanetSecureGrayHole.host[7].wlan[0].mac.queue queueingTime:vector ETV
attr interpolationmode none
attr source queueingTime(packetPopped)
attr title "queueing times, vector"
attr unit s
vector 289 FanetSecureGrayHole.host[7].wlan[0].mac sentDownPk:vector(packetBytes) ETV
attr interpolationmode none
attr source packetSentToLower
attr title "packets sent to lower layer, vector(packetBytes)"
vector 290 FanetSecureGrayHole.host[5].wlan[0].mac rcvdPkFromHl:vector(packetBytes) ETV
attr interpolationmode none
attr source packetReceivedFromUpper
attr title "packets received from higher layer, vector(packetBytes)"
vector 291 FanetSecureGrayHole.host[5].wlan[0].mac.queue packetPushed:vector(packetBytes) ETV
attr interpolationmode none
attr title "packet pushed, vector(packetBytes)"
vector 292 FanetSecureGrayHole.host[5].wlan[0].mac.queue queueLength:vector ETV
attr interpolationmode sample-hold
attr source "count(packetPushed) - count(packetPopped) - count(packetRemoved) - count(packetDropped)"
attr title "queue length, vector"
vector 293 FanetSecureGrayHole.host[5].wlan[0].mac.queue packetPopped:vector(packetBytes) ETV
attr interpolationmode none
attr title "packet popped, vector(packetBytes)"
vector 294 FanetSecureGrayHole.host[5].wlan[0].mac.queue queueingTime:vector ETV
attr interpolationmode none
attr source queueingTime(packetPopped)
attr title "queueing times, vector"
attr unit s
vector 295 FanetSecureGrayHole.host[5].wlan[0].mac sentDownPk:vector(packetBytes) ETV
attr interpolationmode none
attr source packetSentToLower
attr title "packets sent to lower layer, vector(packetBytes)"
vector 296 FanetSecureGrayHole.host[14].wlan[0].mac rcvdPkFromHl:vector(packetBytes) ETV
attr interpolationmode none
attr source packetReceivedFromUpper
attr title "packets received from higher layer, vector(packetBytes)"
vector 297 FanetSecureGrayHole.host[14].wlan[0].mac.queue packetPushed:vector(packetBytes) ETV
attr interpolationmode none
attr title "packet pushed, vector(packetBytes)"
vector 298 FanetSecureGrayHole.host[14].wlan[0].mac.queue queueLength:vector ETV
attr interpolationmode sample-hold
attr source "count(packetPushed) - count(packetPopped) - count(packetRemoved) - count(packetDropped)"
attr title "queue length, vector"
vector 299 FanetSecureGrayHole.host[14].wlan[0].mac.queue packetPopped:vector(packetBytes) ETV
attr interpolationmode none
attr title "packet popped, vector(packetBytes)"
vector 300 FanetSecureGrayHole.host[14].wlan[0].mac.queue queueingTime:vector ETV
attr interpolationmode none
attr source queueingTime(packetPopped)
attr title "queueing times, vector"
attr unit s
vector 301 FanetSecureGrayHole.host[14].wlan[0].mac sentDownPk:vector(packetBytes) ETV
attr interpolationmode none
attr source packetSentToLower
attr title "packets sent to lower layer, vector(packetBytes)"
vector 302 FanetSecureGrayHole.host[16].wlan[0].mac rcvdPkFromHl:vector(packetBytes) ETV
attr interpolationmode none
attr source packetReceivedFromUpper
attr title "packets received from higher layer, vector(packetBytes)"
vector 303 FanetSecureGrayHole.host[16].wlan[0].mac.queue packetPushed:vector(packetBytes) ETV
attr interpolationmode none
attr title "packet pushed, vector(packetBytes)"
vector 304 FanetSecureGrayHole.host[16].wlan[0].mac.queue queueLength:vector ETV
attr interpolationmode sample-hold
attr source "count(packetPushed) - count(packetPopped) - count(packetRemoved) - count(packetDropped)"
attr title "queue length, vector"
vector 305 FanetSecureGrayHole.host[16].wlan[0].mac.queue packetPopped:vector(packetBytes) ETV
attr interpolationmode none
attr title "packet popped, vector(packetBytes)"
vector 306 FanetSecureGrayHole.host[16].wlan[0].mac.queue queueingTime:vector ETV
attr interpolationmode none
attr source queueingTime(packetPopped)
attr title "queueing times, vector"
attr unit s
vector 307 FanetSecureGrayHole.host[16].wlan[0].mac sentDownPk:vector(packetBytes) ETV
attr interpolationmode none
attr source packetSentToLower
attr title "packets sent to lower layer, vector(packetBytes)"
vector 308 FanetSecureGrayHole.host[0].app[0] packetSent:vector(packetBytes) ETV
attr interpolationmode none
attr source packetSent
attr title "packets sent, vector(packetBytes)"
vector 309 FanetSecureGrayHole.host[0].udp packetSent:vector(packetBytes) ETV
attr interpolationmode none
attr source packetSent
attr title "packets sent, vector(packetBytes)"
vector 310 FanetSecureGrayHole.host[13].wlan[0].mac packetDropNotAddressedToUs:vector(packetBytes) ETV
attr interpolationmode none
attr source packetDropReasonIsNotAddressedToUs(packetDropped)
attr title "packet drop: not addressed to us, vector(packetBytes)"
vector 311 FanetSecureGrayHole.host[2].wlan[0].mac packetDropNotAddressedToUs:vector(packetBytes) ETV
attr interpolationmode none
attr source packetDropReasonIsNotAddressedToUs(packetDropped)
attr title "packet drop: not addressed to us, vector(packetBytes)"
vector 312 FanetSecureGrayHole.host[3].wlan[0].mac packetDropNotAddressedToUs:vector(packetBytes) ETV
attr interpolationmode none
attr source packetDropReasonIsNotAddressedToUs(packetDropped)
attr title "packet drop: not addressed to us, vector(packetBytes)"
vector 313 FanetSecureGrayHole.host[7].wlan[0].mac packetDropNotAddressedToUs:vector(packetBytes) ETV
attr interpolationmode none
attr source packetDropReasonIsNotAddressedToUs(packetDropped)
attr title "packet drop: not addressed to us, vector(packetBytes)"
vector 314 FanetSecureGrayHole.host[0].wlan[0].mac packetDropNotAddressedToUs:vector(packetBytes) ETV
attr interpolationmode none
attr source packetDropReasonIsNotAddressedToUs(packetDropped)
attr title "packet drop: not addressed to us, vector(packetBytes)"
vector 315 FanetSecureGrayHole.attacker[0].wlan[0].mac packetDropNotAddressedToUs:vector(packetBytes) ETV
attr interpolationmode none
attr source packetDropReasonIsNotAddressedToUs(packetDropped)
attr title "packet drop: not addressed to us, vector(packetBytes)"
vector 316 FanetSecureGrayHole.host[9].wlan[0].mac packetDropNotAddressedToUs:vector(packetBytes) ETV
attr interpolationmode none
attr source packetDropReasonIsNotAddressedToUs(packetDropped)
attr title "packet drop: not addressed to us, vector(packetBytes)"
vector 317 FanetSecureGrayHole.host[16].wlan[0].mac packetDropNotAddressedToUs:vector(packetBytes) ETV
attr interpolationmode none
attr source packetDropReasonIsNotAddressedToUs(packetDropped)
attr title "packet drop: not addressed to us, vector(packetBytes)"
vector 318 FanetSecureGrayHole.host[12].wlan[0].mac packetDropNotAddressedToUs:vector(packetBytes) ETV
attr interpolationmode none
attr source packetDropReasonIsNotAddressedToUs(packetDropped)
attr title "packet drop: not addressed to us, vector(packetBytes)"
vector 319 FanetSecureGrayHole.host[14].wlan[0].mac packetDropNotAddressedToUs:vector(packetBytes) ETV
attr interpolationmode none
attr source packetDropReasonIsNotAddressedToUs(packetDropped)
attr title "packet drop: not addressed to us, vector(packetBytes)"
vector 320 FanetSecureGrayHole.host[19].wlan[0].mac packetDropNotAddressedToUs:vector(packetBytes) ETV
attr interpolationmode none
attr source packetDropReasonIsNotAddressedToUs(packetDropped)
attr title "packet drop: not addressed to us, vector(packetBytes)"
vector 321 FanetSecureGrayHole.host[18].wlan[0].mac packetDropNotAddressedToUs:vector(packetBytes) ETV
attr interpolationmode none
attr source packetDropReasonIsNotAddressedToUs(packetDropped)
attr title "packet drop: not addressed to us, vector(packetBytes)"
vector 322 FanetSecureGrayHole.host[4].wlan[0].mac packetDropNotAddressedToUs:vector(packetBytes) ETV
attr interpolationmode none
attr source packetDropReasonIsNotAddressedToUs(packetDropped)
attr title "packet drop: not addressed to us, vector(packetBytes)"
vector 323 FanetSecureGrayHole.host[17].wlan[0].mac packetDropNotAddressedToUs:vector(packetBytes) ETV
attr interpolationmode none
attr source packetDropReasonIsNotAddressedToUs(packetDropped)
attr title "packet drop: not addressed to us, vector(packetBytes)"
vector 324 FanetSecureGrayHole.host[5].wlan[0].mac packetDropNotAddressedToUs:vector(packetBytes) ETV
attr interpolationmode none
attr source packetDropReasonIsNotAddressedToUs(packetDropped)
attr title "packet drop: not addressed to us, vector(packetBytes)"
vector 325 FanetSecureGrayHole.host[8].wlan[0].mac packetDropNotAddressedToUs:vector(packetBytes) ETV
attr interpolationmode none
attr source packetDropReasonIsNotAddressedToUs(packetDropped)
attr title "packet drop: not addressed to us, vector(packetBytes)"
vector 326 FanetSecureGrayHole.host[10].wlan[0].mac packetDropNotAddressedToUs:vector(packetBytes) ETV
attr interpolationmode none
attr source packetDropReasonIsNotAddressedToUs(packetDropped)
attr title "packet drop: not addressed to us, vector(packetBytes)"
vector 327 FanetSecureGrayHole.host[11].wlan[0].mac packetDropNotAddressedToUs:vector(packetBytes) ETV
attr interpolationmode none
attr source packetDropReasonIsNotAddressedToUs(packetDropped)
attr title "packet drop: not addressed to us, vector(packetBytes)"
vector 328 FanetSecureGrayHole.host[6].wlan[0].mac packetDropNotAddressedToUs:vector(packetBytes) ETV
attr interpolationmode none
attr source packetDropReasonIsNotAddressedToUs(packetDropped)
attr title "packet drop: not addressed to us, vector(packetBytes)"
vector 329 FanetSecureGrayHole.host[1].udp packetReceived:vector(packetBytes) ETV
attr interpolationmode none
attr source packetReceived
attr title "packets received, vector(packetBytes)"
vector 330 FanetSecureGrayHole.host[1].udp passedUpPk:vector(count) ETV
attr interpolationmode none
attr source packetSentToUpper
attr title "packets passed up, vector(count)"
vector 331 FanetSecureGrayHole.host[1].app[0] packetReceived:vector(packetBytes) ETV
attr interpolationmode none
attr source packetReceived
attr title "packets received, vector(packetBytes)"
vector 332 FanetSecureGrayHole.host[1].app[0] throughput:vector ETV
attr source throughput(packetReceived)
attr title "throughput, vector"
attr unit bps
vector 333 FanetSecureGrayHole.host[1].app[0] endToEndDelay:vector ETV
attr interpolationmode none
attr source dataAge(packetReceived)
attr title "end-to-end delay, vector"
attr unit s
vector 334 FanetSecureGrayHole.host[1].app[0] rcvdPkSeqNo:vector ETV
attr interpolationmode none
attr source appPkSeqNo(packetReceived)
attr title "received packet sequence number, vector"
vector 335 FanetSecureGrayHole.host[20].wlan[0].mac packetDropNotAddressedToUs:vector(packetBytes) ETV
attr interpolationmode none
attr source packetDropReasonIsNotAddressedToUs(packetDropped)
attr title "packet drop: not addressed to us, vector(packetBytes)"
vector 336 FanetSecureGrayHole.host[20].udp packetReceived:vector(packetBytes) ETV
attr interpolationmode none
attr source packetReceived
attr title "packets received, vector(packetBytes)"
vector 337 FanetSecureGrayHole.host[20].udp passedUpPk:vector(count) ETV
attr interpolationmode none
attr source packetSentToUpper
attr title "packets passed up, vector(count)"
vector 338 FanetSecureGrayHole.host[20].app[0] packetReceived:vector(packetBytes) ETV
attr interpolationmode none
attr source packetReceived
attr title "packets received, vector(packetBytes)"
vector 339 FanetSecureGrayHole.host[20].app[0] throughput:vector ETV
attr source throughput(packetReceived)
attr title "throughput, vector"
attr unit bps
vector 340 FanetSecureGrayHole.host[20].app[0] endToEndDelay:vector ETV
attr interpolationmode none
attr source dataAge(packetReceived)
attr title "end-to-end delay, vector"
attr unit s
vector 341 FanetSecureGrayHole.host[20].app[0] rcvdPkSeqNo:vector ETV
attr interpolationmode none
attr source appPkSeqNo(packetReceived)
attr title "received packet sequence number, vector"
vector 342 FanetSecureGrayHole.host[12].ipv4.ip packetDropHopLimitReached:vector(packetBytes) ETV
attr interpolationmode none
attr source packetDropReasonIsHopLimitReached(packetDropped)
attr title "packet drop: hop limit reached, vector(packetBytes)"
vector 343 FanetSecureGrayHole.host[10].ipv4.ip packetDropHopLimitReached:vector(packetBytes) ETV
attr interpolationmode none
attr source packetDropReasonIsHopLimitReached(packetDropped)
attr title "packet drop: hop limit reached, vector(packetBytes)"
vector 344 FanetSecureGrayHole.host[14].ipv4.ip packetDropHopLimitReached:vector(packetBytes) ETV
attr interpolationmode none
attr source packetDropReasonIsHopLimitReached(packetDropped)
attr title "packet drop: hop limit reached, vector(packetBytes)"
vector 345 FanetSecureGrayHole.host[19].ipv4.ip packetDropHopLimitReached:vector(packetBytes) ETV
attr interpolationmode none
attr source packetDropReasonIsHopLimitReached(packetDropped)
attr title "packet drop: hop limit reached, vector(packetBytes)"
vector 346 FanetSecureGrayHole.host[6].ipv4.ip packetDropHopLimitReached:vector(packetBytes) ETV
attr interpolationmode none
attr source packetDropReasonIsHopLimitReached(packetDropped)
attr title "packet drop: hop limit reached, vector(packetBytes)"
vector 347 FanetSecureGrayHole.host[3].wlan[0].mac packetDropIncorrectlyReceived:vector(packetBytes) ETV
attr interpolationmode none
attr source packetDropReasonIsIncorrectlyReceived(packetDropped)
attr title "packet drop: incorrectly received, vector(packetBytes)"
vector 348 FanetSecureGrayHole.host[3].ipv4.ip packetDropHopLimitReached:vector(packetBytes) ETV
attr interpolationmode none
attr source packetDropReasonIsHopLimitReached(packetDropped)
attr title "packet drop: hop limit reached, vector(packetBytes)"
vector 349 FanetSecureGrayHole.host[16].ipv4.ip packetDropHopLimitReached:vector(packetBytes) ETV
attr interpolationmode none
attr source packetDropReasonIsHopLimitReached(packetDropped)
attr title "packet drop: hop limit reached, vector(packetBytes)"
vector 350 FanetSecureGrayHole.host[18].ipv4.ip packetDropHopLimitReached:vector(packetBytes) ETV
attr interpolationmode none
attr source packetDropReasonIsHopLimitReached(packetDropped)
attr title "packet drop: hop limit reached, vector(packetBytes)"
vector 351 FanetSecureGrayHole.host[2].wlan[0].mac packetDropIncorrectlyReceived:vector(packetBytes) ETV
attr interpolationmode none
attr source packetDropReasonIsIncorrectlyReceived(packetDropped)
attr title "packet drop: incorrectly received, vector(packetBytes)"
vector 352 FanetSecureGrayHole.host[18].wlan[0].mac packetDropIncorrectlyReceived:vector(packetBytes) ETV
attr interpolationmode none
attr source packetDropReasonIsIncorrectlyReceived(packetDropped)
attr title "packet drop: incorrectly received, vector(packetBytes)"
vector 353 FanetSecureGrayHole.host[16].wlan[0].mac packetDropIncorrectlyReceived:vector(packetBytes) ETV
attr interpolationmode none
attr source packetDropReasonIsIncorrectlyReceived(packetDropped)
attr title "packet drop: incorrectly received, vector(packetBytes)"
vector 354 FanetSecureGrayHole.host[13].wlan[0].mac packetDropIncorrectlyReceived:vector(packetBytes) ETV
attr interpolationmode none
attr source packetDropReasonIsIncorrectlyReceived(packetDropped)
attr title "packet drop: incorrectly received, vector(packetBytes)"
vector 355 FanetSecureGrayHole.host[9].ipv4.ip packetDropHopLimitReached:vector(packetBytes) ETV
attr interpolationmode none
attr source packetDropReasonIsHopLimitReached(packetDropped)
attr title "packet drop: hop limit reached, vector(packetBytes)"
vector 356 FanetSecureGrayHole.host[5].ipv4.ip packetDropHopLimitReached:vector(packetBytes) ETV
attr interpolationmode none
attr source packetDropReasonIsHopLimitReached(packetDropped)
attr title "packet drop: hop limit reached, vector(packetBytes)"
vector 357 FanetSecureGrayHole.attacker[0].wlan[0].mac packetDropIncorrectlyReceived:vector(packetBytes) ETV
attr interpolationmode none
attr source packetDropReasonIsIncorrectlyReceived(packetDropped)
attr title "packet drop: incorrectly received, vector(packetBytes)"
vector 358 FanetSecureGrayHole.host[19].wlan[0].mac packetDropIncorrectlyReceived:vector(packetBytes) ETV
attr interpolationmode none
attr source packetDropReasonIsIncorrectlyReceived(packetDropped)
attr title "packet drop: incorrectly received, vector(packetBytes)"
vector 359 FanetSecureGrayHole.host[12].wlan[0].mac packetDropIncorrectlyReceived:vector(packetBytes) ETV
attr interpolationmode none
attr source packetDropReasonIsIncorrectlyReceived(packetDropped)
attr title "packet drop: incorrectly received, vector(packetBytes)"
vector 360 FanetSecureGrayHole.host[11].wlan[0].mac packetDropIncorrectlyReceived:vector(packetBytes) ETV
attr interpolationmode none
attr source packetDropReasonIsIncorrectlyReceived(packetDropped)
attr title "packet drop: incorrectly received, vector(packetBytes)"
vector 361 FanetSecureGrayHole.host[2].ipv4.ip packetDropHopLimitReached:vector(packetBytes) ETV
attr interpolationmode none
attr source packetDropReasonIsHopLimitReached(packetDropped)
attr title "packet drop: hop limit reached, vector(packetBytes)"
vector 362 FanetSecureGrayHole.host[17].ipv4.ip packetDropHopLimitReached:vector(packetBytes) ETV
attr interpolationmode none
attr source packetDropReasonIsHopLimitReached(packetDropped)
[...]
157	30115984 52970 363383 785001 254.27418410918 898.806596032765 1636 56 1084 1325972 1408717456
158	30168954 16750 363383 785001 254.27418410918 898.806596032765 535 40 1068 123928 110878144
159	30185704 63368 363633 784997 254.71113160166 898.806595993494 1952 56 1084 1680344 1794950624
160	30249072 23822 363686 784997 254.711497353636 898.806595993494 749 40 1068 386676 396439728
161	30272894 51411 363232 784434 254.274018532247 897.383784962611 1590 56 1084 1260112 1336966272
162	30324305 16206 365452 784434 254.920243623705 897.383784962611 519 40 1068 109484 97883984
163	30340511 70994 363341 784846 254.274129032948 898.353186265306 2181 56 1084 1970372 2111055024
164	30411505 17311 363341 784034 254.274129032948 896.605032214617 548 40 1068 217528 217342048
165	30428816 60147 363393 784842 254.274184426935 898.353186219349 1849 56 1084 1645984 1761853792
166	30488963 22115 363586 784526 254.710765747741 897.462713498051 692 40 1068 396568 409029856
167	30511078 4581 369970 783128 260.609135599807 894.782563019543 143 40 1068 87316 90279280
168	30515659 4581 369970 783128 260.609135599807 894.782563019543 143 40 1068 87316 90279280
169	30520240 8552 369970 783128 260.609135599807 894.782563019543 286 0 1 143 143
170	30528792 4581 369970 783128 260.609135599807 894.782563019543 143 40 1068 87316 90279280
171	30533373 4276 369970 783128 260.609135599807 894.782563019543 143 0 0 0 0
172	30537649 4581 369970 783128 260.609135599807 894.782563019543 143 56 1084 89604 93110000
173	30542230 145575 363303 785263 254.27407437203 899.45029628818 3251 -3.6201209593415 -1.0340163756783 -6014.8078658868 12176.528566606
174	30687805 128380 363241 785130 254.274018703813 899.142924773648 2867 -3.6144361737513 -1.0308890534718 -5664.5201740844 12297.424469414
175	30816185 197086 363229 785271 254.274018323693 899.450296423839 4402 -3.6228642550161 -1.0337444039526 -8279.1025298863 17022.953118539
176	31013271 34792 363277 784282 254.27407337048 896.90247314612 1087 56 1084 674740 701160496
177	31048063 16729 368083 784282 256.729859384022 896.90247314612 537 40 1068 91384 78312832
178	31064792 54929 363230 785272 254.274018323693 899.450296423839 1707 56 1084 1213428 1275481008
179	31119721 22452 363281 785272 254.274073540003 899.450296423839 718 40 1068 172736 160629056
180	31142173 2701 368502 784005 257.90918022394 896.605009057097 86 40 1068 26152 25213024
181	31144874 2701 368502 784005 257.90918022394 896.605009057097 86 40 1068 26152 25213024
182	31147575 5140 368502 784005 257.90918022394 896.605009057097 172 0 1 86 86
183	31152715 2701 368502 784005 257.90918022394 896.605009057097 86 40 1068 26152 25213024
184	31155416 2570 368502 784005 257.90918022394 896.605009057097 86 0 0 0 0
185	31157986 2701 368502 784005 257.90918022394 896.605009057097 86 56 1084 27528 26071904
186	31160687 159804 363233 785124 254.274018559883 899.142903820048 3569 -3.6077859655875 -1.0244790752141 -7755.8601466 18743.891362429
187	31320491 80949 363223 785267 254.274018193547 899.450296385898 1807 -3.6087282842048 -1.0251993234348 -3589.1685246258 8032.2505033183
188	31401440 20772 363224 785268 254.274018193547 899.450296385898 649 56 1084 392760 405754816
189	31422212 10037 363224 785268 254.274018193547 899.450296385898 322 40 1068 60168 52910304
190	31432249 5587 367543 783276 255.917758415455 895.113909509966 174 40 1068 117984 123292992
191	31437836 5587 367543 783276 255.917758415455 895.113909509966 174 40 1068 117984 123292992
192	31443423 10394 367543 783276 255.917758415455 895.113909509966 348 0 1 174 174
193	31453817 5587 367543 783276 255.917758415455 895.113909509966 174 40 1068 117984 123292992
194	31459404 5197 367543 783276 255.917758415455 895.113909509966 174 0 0 0 0
195	31464601 5587 367543 783276 255.917758415455 895.113909509966 174 56 1084 120768 127113024
196	31470188 27705 363236 785140 254.274018634209 899.142925398533 868 56 1084 509728 527862016
197	31497893 16430 365370 785140 254.835408502024 899.142925398533 525 40 1068 135108 127271664
198	31514323 4605 368688 784409 258.202534934971 897.38376208814 144 40 1068 87068 90230192
199	31518928 4605 368688 784409 258.202534934971 897.38376208814 144 40 1068 87068 90230192
200	31523533 8604 368688 784409 258.202534934971 897.38376208814 288 0 1 144 144
201	31532137 4605 368688 784409 258.202534934971 897.38376208814 144 40 1068 87068 90230192
202	31536742 4302 368688 784409 258.202534934971 897.38376208814 144 0 0 0 0
203	31541044 4605 368688 784409 258.202534934971 897.38376208814 144 56 1084 89372 93053232
204	31545649 40675 363346 785264 254.274129038697 899.45029628818 1264 56 1084 891048 935307040
205	31586324 15943 365456 785264 254.920243711102 899.45029628818 511 40 1068 105764 95356592
206	31602267 6576 363283 782904 254.274073540003 894.00694122305 204 40 1068 151244 158684528
207	31608843 6576 363283 782904 254.274073540003 894.00694122305 204 40 1068 151244 158684528
208	31615419 12184 363283 782904 254.274073540003 894.00694122305 408 0 1 204 204
209	31627603 6576 363283 782904 254.274073540003 894.00694122305 204 40 1068 151244 158684528
210	31634179 6092 363283 782904 254.274073540003 894.00694122305 204 0 0 0 0
211	31640271 6576 363283 782904 254.274073540003 894.00694122305 204 56 1084 154508 163576560
212	31646847 41014 363234 785005 254.274018559883 898.806596135079 1265 56 1084 1072812 1144604624
213	31687861 9202 367493 785005 255.85211246909 898.806596135079 297 40 1068 34592 25550624
214	31697063 4940 369806 783914 260.104422888251 896.565975376866 154 40 1068 98680 102758560
215	31702003 4940 369806 783914 260.104422888251 896.565975376866 154 40 1068 98680 102758560
216	31706943 9212 369806 783914 260.104422888251 896.565975376866 308 0 1 154 154
217	31716155 4940 369806 783914 260.104422888251 896.565975376866 154 40 1068 98680 102758560
218	31721095 4606 369806 783914 260.104422888251 896.565975376866 154 0 0 0 0
219	31725701 4940 369806 783914 260.104422888251 896.565975376866 154 56 1084 101144 105955744
220	31730641 170897 363654 785127 254.711132415693 899.142903907685 3817 -3.6111231844357 -1.0264878736573 -8793.1990364927 22903.434518455
221	31901538 182210 363601 784985 254.710766355106 898.806574435896 4068 -3.6271375857194 -1.0315467880771 -8154.7592610253 18940.880272821
222	32083748 48401 363635 784834 254.711131688439 898.353186103324 1491 56 1084 1286668 1374949776
223	32132149 24806 363635 783955 254.711131688439 896.565998810617 773 40 1068 509968 532021984
224	32156955 25718 363557 784747 254.710399554695 898.35245407537 786 40 1068 772628 822493904
225	32182673 25718 363557 784747 254.710399554695 898.35245407537 786 40 1068 772628 822493904
226	32208391 46981 363557 784747 254.710399554695 898.35245407537 1572 0 1 786 786
227	32255372 25719 363557 784747 254.710399554695 898.35245407537 786 40 1068 772628 822493904
228	32281091 23620 363557 784747 254.710399554695 898.35245407537 786 0 0.077781347981 0.418122590086 0.024843187954876
229	32304711 25719 363557 784747 254.710399554695 898.35245407537 786 56 1084 785204 847419216
230	32330430 77296 363399 785017 254.274184526007 898.806596544855 2376 56 1084 2107640 2255792736
231	32407726 25632 367914 785017 256.214446326996 898.806596544855 805 40 1068 418824 429577920
232	32433358 2008 370039 780696 260.665663301481 889.396312884058 65 40 40 2600 104000
233	32435366 2008 370039 780696 260.665663301481 889.396312884058 65 40 40 2600 104000
234	32437374 3886 370039 780696 260.665663301481 889.396312884058 130 0 1 65 65
235	32441260 2008 370039 780696 260.665663301481 889.396312884058 65 40 40 2600 104000
236	32443268 1943 370039 780696 260.665663301481 889.396312884058 65 0 0 0 0
237	32445211 2008 370039 780696 260.665663301481 889.396312884058 65 56 56 3640 203840
238	32447219 6551 368253 785144 256.981291345812 899.142925461518 209 56 1084 60020 55735664
239	32453770 5004 368253 785144 256.981291345812 899.142925461518 162 40 40 6480 259200
240	32458774 3487 363227 783441 254.274018193547 895.269699557686 110 40 1068 50756 51448976
241	32462261 3487 363227 783441 254.274018193547 895.269699557686 110 40 1068 50756 51448976
242	32465748 6572 363227 783441 254.274018193547 895.269699557686 220 0 1 110 110
243	32472320 3487 363227 783441 254.274018193547 895.269699557686 110 40 1068 50756 51448976
244	32475807 3286 363227 783441 254.274018193547 895.269699557686 110 0 0 0 0
245	32479093 3487 363227 783441 254.274018193547 895.269699557686 110 56 1084 52516 53101328
246	32482580 13409 363688 782174 254.711497353636 892.684887857174 412 40 1068 372264 394778400
247	32495989 13409 363688 782174 254.711497353636 892.684887857174 412 40 1068 372264 394778400
248	32509398 24608 363688 782174 254.711497353636 892.684887857174 824 0 1 412 412
249	32534006 13409 363688 782174 254.711497353636 892.684887857174 412 40 1068 372264 394778400
250	32547415 12356 363688 782174 254.711497353636 892.684887857174 412 0 0.075522199983 0.183854020802 0.010743703088638
251	32559771 13409 363688 782174 254.711497353636 892.684887857174 412 56 1084 378856 406796320
252	32573180 4863 365345 782817 254.835385726763 893.996985694393 152 40 1068 94584 98216160
253	32578043 4863 365345 782817 254.835385726763 893.996985694393 152 40 1068 94584 98216160
254	32582906 9076 365345 782817 254.835385726763 893.996985694393 304 0 1 152 152
255	32591982 4863 365345 782817 254.835385726763 893.996985694393 152 40 1068 94584 98216160
256	32596845 4538 365345 782817 254.835385726763 893.996985694393 152 0 0 0 0
257	32601383 4863 365345 782817 254.835385726763 893.996985694393 152 56 1084 97016 101281760
258	32606246 5179 370647 782538 261.619206957986 893.45206229482 162 40 1068 95204 97312784
259	32611425 5179 370647 782538 261.619206957986 893.45206229482 162 40 1068 95204 97312784
260	32616604 9666 370647 782538 261.619206957986 893.45206229482 324 0 1 162 162
261	32626270 5179 370647 782538 261.619206957986 893.45206229482 162 40 1068 95204 97312784
262	32631449 4833 370647 782538 261.619206957986 893.45206229482 162 0 0 0 0
263	32636282 5179 370647 782538 261.619206957986 893.45206229482 162 56 1084 97796 100400784
264	32641461 3467 368228 781845 256.981268033848 891.965501003428 109 40 1068 52676 53708528
265	32644928 3467 368228 781845 256.981268033848 891.965501003428 109 40 1068 52676 53708528
266	32648395 6528 368228 781845 256.981268033848 891.965501003428 218 0 1 109 109
267	32654923 3467 368228 781845 256.981268033848 891.965501003428 109 40 1068 52676 53708528
268	32658390 3264 368228 781845 256.981268033848 891.965501003428 109 0 0 0 0
269	32661654 3467 368228 781845 256.981268033848 891.965501003428 109 56 1084 54420 55422064
270	32665121 47563 363694 785013 254.711497749026 898.806596507137 1462 56 1084 1311388 1405248880
271	32712684 10864 368639 785013 258.187048522999 898.806596507137 346 40 1068 106360 103065760
272	32723548 2133 365427 780122 254.920220731293 888.3445739164 69 40 40 2760 110400
273	32725681 2133 365427 780122 254.920220731293 888.3445739164 69 40 40 2760 110400
274	32727814 4128 365427 780122 254.920220731293 888.3445739164 138 0 1 69 69
275	32731942 2133 365427 780122 254.920220731293 888.3445739164 69 40 40 2760 110400
276	32734075 2064 365427 780122 254.920220731293 888.3445739164 69 0 0 0 0
277	32736139 2133 365427 780122 254.920220731293 888.3445739164 69 56 56 3864 216384
278	32738272 8460 363343 784972 254.274129032948 898.806572973262 262 40 1068 195836 204541040
279	32746732 8460 363343 784972 254.274129032948 898.806572973262 262 40 1068 195836 204541040
280	32755192 15652 363343 784972 254.274129032948 898.806572973262 524 0 1 262 262
281	32770844 8460 363343 784972 254.274129032948 898.806572973262 262 40 1068 195836 204541040
282	32779304 7826 363343 784972 254.274129032948 898.806572973262 262 0 0 0 0
283	32787130 8460 363343 784972 254.274129032948 898.806572973262 262 56 1084 200028 210874864
284	32795590 16536 363637 784485 254.711131688439 897.462690018581 507 40 1068 467296 495299680
285	32812126 16536 363637 784485 254.711131688439 897.462690018581 507 40 1068 467296 495299680
286	32828662 30304 363637 784485 254.711131688439 897.462690018581 1014 0 1 507 507
287	32858966 16536 363637 784485 254.711131688439 897.462690018581 507 40 1068 467296 495299680
288	32875502 15152 363637 784485 254.711131688439 897.462690018581 507 0 0 0 0
289	32890654 16536 363637 784485 254.711131688439 897.462690018581 507 56 1084 475408 510382944
290	32907190 3849 372542 785239 264.768614391795 899.450272999233 121 40 1068 63436 65117968
291	32911039 3849 372542 785239 264.768614391795 899.450272999233 121 40 1068 63436 65117968
292	32914888 7228 372542 785239 264.768614391795 899.450272999233 242 0 1 121 121
293	32922116 3849 372542 785239 264.768614391795 899.450272999233 121 40 1068 63436 65117968
294	32925965 3614 372542 785239 264.768614391795 899.450272999233 121 0 0 0 0
295	32929579 3849 372542 785239 264.768614391795 899.450272999233 121 56 1084 65372 67178896
296	32933428 4136 367452 785107 255.852088911926 899.142902106981 130 40 1068 64852 65318224
297	32937564 4136 367452 785107 255.852088911926 899.142902106981 130 40 1068 64852 65318224
298	32941700 7762 367452 785107 255.852088911926 899.142902106981 260 0 1 130 130
299	32949462 4136 367452 785107 255.852088911926 899.142902106981 130 40 1068 64852 65318224
300	32953598 3881 367452 785107 255.852088911926 899.142902106981 130 0 0 0 0
301	32957479 4136 367452 785107 255.852088911926 899.142902106981 130 56 1084 66932 67426768
302	32961615 13420 363588 780916 254.710765747741 890.048408836595 412 40 1068 367056 388113216
303	32975035 13420 363588 780916 254.710765747741 890.048408836595 412 40 1068 367056 388113216
304	32988455 24633 363588 780916 254.710765747741 890.048408836595 824 0 1 412 412
305	33013088 13419 363588 780916 254.710765747741 890.048408836595 412 40 1068 367056 388113216
306	33026507 12342 363588 780916 254.710765747741 890.048408836595 412 0 0.091451981335 0.154752910976 0.012370472583512
307	33038849 13419 363588 780916 254.710765747741 890.048408836595 412 56 1084 373648 399964480
308	33052268 20553 363554 784744 254.710399554695 898.35245407537 625 1000 1000 625000 625000000
309	33072821 20553 363555 784745 254.710399554695 898.35245407537 625 1008 1008 630000 635040000
310	33093374 51565 363399 763160 254.274184526007 851.713261323595 1568 152 1084 1672684 1809081200
311	33144939 35173 363232 632103 254.274018532247 597.667860289885 1070 152 1084 1141240 1234270880
312	33180112 53617 363582 784846 254.710765293585 898.353186265306 1631 152 1084 1741908 1884261680
313	33233729 23562 363735 784834 254.71186301883 898.353186103324 717 152 1084 763248 825235872
314	33257291 36220 363644 784832 254.711131940788 898.353185986045 1101 1084 1084 1193484 1293736656
315	33293511 70910 363240 784838 254.274018677407 898.353186160803 2157 152 1084 2296248 2482757952
316	33364421 39480 363633 784840 254.71113160166 898.353186216932 1201 152 1084 1279516 1383595408
317	33403901 37966 363393 784842 254.274184426935 898.353186219349 1155 152 1084 1236176 1337606496
318	33441867 21420 363222 621649 254.274018187918 579.692480435133 652 152 1084 675080 726970144
319	33463287 18030 363277 621702 254.27407337048 579.692846701515 549 152 1084 573680 618610848
320	33481317 32445 363230 633069 254.274018323693 599.30499030952 988 152 1084 1028120 1107965536
321	33513762 24732 363346 621694 254.274129038697 579.692846222112 753 152 1084 777108 836435184
322	33538494 10735 363337 547695 254.274128886461 442.451437087087 327 152 1084 327440 350836704
323	33549229 11242 363236 784836 254.274018634209 898.353186132726 342 152 1084 365136 394957440
324	33560471 24333 363238 621696 254.274018647626 579.692846303866 741 152 1084 772488 832702080
325	33584804 11707 449619 621692 358.468905715978 579.692846041796 356 152 1084 380312 411408224
326	33596511 28466 449560 704169 358.46853959842 737.089955832022 866 152 1084 909852 981887984
327	33624977 31812 363234 784785 254.274018559883 898.352820260225 968 152 1084 1033468 1117871024
328	33656789 36667 363694 784830 254.711497749026 898.353185889664 1115 152 1084 1198408 1297515968
329	33693456 6705 527558 784827 424.238171865047 898.353185879917 204 1008 1008 205632 207277056
330	33700161 6405 527558 784827 424.238171865047 898.353185879917 204 7 210 22134 3108994
331	33706566 6705 527559 784828 424.238171865047 898.353185879917 204 1000 1000 204000 204000000
332	33713271 164786 527559 785426 23.8 900 8763 0 160000 16400000 1376000000000
333	33878057 8729 527559 784828 424.238171865047 898.353185879917 204 0.000731804547 0.009513331285 0.310001367461 0.0011790165927736
334	33886786 6501 527559 784828 424.238171865047 898.353185879917 204 405 869 131584 89084114
335	33893287 1218 503846 784844 395.513097902407 898.353186240218 37 1084 1084 40108 43477072
336	33894505 7922 509792 784210 401.548819957668 896.868815825552 241 1008 1008 242928 244871424
337	33902427 7614 509792 784210 401.548819957668 896.868815825552 241 33 273 36873 6808009
338	33910041 7922 509793 784211 401.548819957668 896.868815825552 241 1000 1000 241000 241000000
339	33917963 157050 509793 785426 68.1 900 8320 0 160000 19360000 1612800000000
340	34075013 10285 509793 784211 401.548819957668 896.868815825552 241 0.00073218931 0.001464249052 0.267955982337 0.00030440624780873
341	34085298 7681 509793 784211 401.548819957668 896.868815825552 241 383 868 148109 95870653
342	34092979 33 470183 470183 374.196687254488 374.196687254488 1 1068 1068 1068 1140624
343	34093012 33 520028 520028 415.508759122631 415.508759122631 1 1068 1068 1068 1140624
344	34093045 361 475892 498387 381.392536534414 392.244692354826 11 1068 1068 11748 12546864
345	34093406 33 466761 466761 370.767028006285 370.767028006285 1 1068 1068 1068 1140624
347	34093439 66 619493 626632 575.521271989364 588.205640108718 2 1084 1084 2168 2350112
348	34093505 363 387511 414439 282.615853806812 301.791465800918 11 1068 1068 11748 12546864
349	34093868 66 460293 500706 368.279110298823 393.161471117883 2 1068 1068 2136 2281248
350	34093934 132 451248 464470 358.479514543296 369.276777470264 4 1068 1068 4272 4562496
351	34094066 32 512194 512194 404.31098327317 404.31098327317 1 1084 1084 1084 1175056
353	34094098 66 486733 619590 387.482962755267 575.521637960659 2 1084 1084 2168 2350112
354	34094164 99 486740 626702 387.482963189092 588.206005936707 3 1084 1084 3252 3525168
355	34094263 33 412511 412511 301.196998778888 301.196998778888 1 1068 1068 1068 1140624
357	34094296 99 619486 626621 575.521271789718 588.205639642932 3 1084 1084 3252 3525168
358	34094395 32 512192 512192 404.31098316952 404.31098316952 1 1084 1084 1084 1175056
359	34094427 33 512202 512202 404.310983440152 404.310983440152 1 1084 1084 1084 1175056
363	34094460 297 365160 434666 254.722106285738 324.987109512081 9 1068 1068 9612 10265616
364	34094757 33 363225 363225 254.274018193547 254.274018193547 1 1068 1068 1068 1140624
365	34094790 33 428989 428989 323.734441085761 323.734441085761 1 1068 1068 1068 1140624
366	34094823 33 486731 486731 387.482962619274 387.482962619274 1 1084 1084 1084 1175056
367	34094856 33 512190 512190 404.310983114403 404.310983114403 1 1084 1084 1084 1175056
368	34094889 33 512196 512196 404.310983319932 404.310983319932 1 1084 1084 1084 1175056
369	34094922 33 512198 512198 404.310983349495 404.310983349495 1 1084 1084 1084 1175056
370	34094955 33 512204 512204 404.310983453217 404.310983453217 1 1084 1084 1084 1175056
371	34094988 1547 527554 695375 424.238171749041 721.847608399193 47 1084 1084 50948 55227632
372	34096535 4248 543715 784192 441.095308897092 896.868815472878 129 1084 1084 139836 151582224
373	34100783 66 619588 626677 575.521637935811 588.205965585279 2 1084 1084 2168 2350112
374	34100849 32 619594 619594 575.52163817576 575.52163817576 1 1084 1084 1084 1175056
375	34100881 168102 785426 785426 0.1 900 9000 0 0 0 0

