file 3469428 1655490506                                         
version 2
run FanetGrayHole-0-20220617-20:28:16-24359
attr configname FanetGrayHole
attr datetime 20220617-20:28:16
attr experiment FanetGrayHole
attr inifile omnetpp.ini
attr iterationvars ""
attr iterationvarsf ""
attr measurement ""
attr network FanetGrayHole
attr processid 24359
attr repetition 0
attr replication #0
attr resultdir results
attr runnumber 0
attr seedset 0
param *.host[0].numApps 1
param *.host[0].app[0].typename "\"UdpBasicApp\""
param *.host[0].app[0].startTime 11s
param *.host[0].app[0].destAddresses "\"host[1]\""
param *.host[0].app[0].destPort 5000
param *.host[0].app[0].messageLength 1000B
param *.host[0].app[0].sendInterval exponential(1s)
param *.host[0].app[0].packetName "\"UDPdata\""
param *.host[1].numApps 1
param *.host[1].app[0].typename "\"UdpSink\""
param *.host[1].app[0].localPort 5000
param **.wlan[*].bitrate 24Mbps
param *.configurator.addStaticRoutes false
param **.netmaskRoutes "\"\""
param **.arp.typename "\"GlobalArp\""
param *.host*.wlan[0].typename "\"AckingWirelessInterface\""
param *.host*.wlan[0].radio.transmitter.communicationRange 300m
param *.host*.wlan[0].radio.displayCommunicationRange false
param *.visualizer.osgVisualizer.typename "\"IntegratedOsgVisualizer\""
param *.visualizer.osgVisualizer.sceneVisualizer.clearColor "\"skyblue\""
param *.visualizer.osgVisualizer.sceneVisualizer.sceneImage "\"showcases/desert\""
param *.visualizer.osgVisualizer.sceneVisualizer.sceneImageSize 5000m
param *.visualizer.osgVisualizer.sceneVisualizer.axisLength 1000m
param *.visualizer.osgVisualizer.sceneVisualizer.sceneMinX -2000m
param *.visualizer.osgVisualizer.sceneVisualizer.sceneMinY -2000m
param *.visualizer.osgVisualizer.sceneVisualizer.sceneMinZ 0m
param *.visualizer.osgVisualizer.sceneVisualizer.sceneMaxX 3000m
param *.visualizer.osgVisualizer.sceneVisualizer.sceneMaxY 3000m
param *.visualizer.osgVisualizer.sceneVisualizer.sceneMaxZ 1000m
param *.visualizer.osgVisualizer.networkNodeVisualizer.displayModuleName false
param *.visualizer.*.mobilityVisualizer.displayMobility true
param *.visualizer.*.mobilityVisualizer.displayPositions true
param *.visualizer.*.mobilityVisualizer.displayOrientations true
param *.visualizer.*.mobilityVisualizer.displayVelocities true
param *.visualizer.*.mobilityVisualizer.displayMovementTrails true
param *.visualizer.*.mobilityVisualizer.animationSpeed 1
param *.visualizer.*.packetDropVisualizer.displayPacketDrops false
param *.visualizer.*.packetDropVisualizer.labelFormat "\"%n/reason: %r\""
param *.visualizer.*.packetDropVisualizer.fadeOutTime 10s
param **.constraintAreaMinX 0m
param **.constraintAreaMinY 0m
param **.constraintAreaMinZ 50m
param **.constraintAreaMaxX 1500m
param **.constraintAreaMaxY 1000m
param **.constraintAreaMaxZ 300m
param *.visualizer.*.mediumVisualizer.signalPropagationAnimationSpeed 500/3e8
param *.visualizer.*.mediumVisualizer.signalTransmissionAnimationSpeed 50000/3e8
param *.visualizer.*.mediumVisualizer.displaySignals false
param *.visualizer.*.mediumVisualizer.displayTransmissions false
param *.visualizer.*.mediumVisualizer.displayReceptions false
param *.visualizer.*.mediumVisualizer.transmissionPlacementPriority 10
param *.visualizer.*.mediumVisualizer.receptionPlacementPriority 10
param *.visualizer.*.mediumVisualizer.displaySignals false
param *.visualizer.*.mediumVisualizer.signalFadingDistance 50m
param *.visualizer.*.mediumVisualizer.signalRingSize 50m
param *.visualizer.osgVisualizer.mediumVisualizer.signalShape "\"both\""
param *.host[*].osgModel "\"3d/drone.ive.100.scale.0,0,90.rot\""
param *.host[*].mobility.typename "\"MassMobility\""
param *.host[*].mobility.changeInterval 1s
param *.host[*].mobility.initialMovementHeading "uniform(0deg, 360deg)"
param *.host[*].mobility.initialMovementElevation "uniform(-90deg, 90deg)"
param *.host[*].mobility.angleDelta uniform(-10deg,10deg)
param *.host[*].mobility.rotationAxisAngle uniform(-10deg,10deg)
param *.host[*].mobility.speed uniform(10mps,20mps)
param *.host[*].mobility.faceForward false
param *.attacker[*].mobility.typename "\"MassMobility\""
param *.attacker[*].mobility.changeInterval 1s
param *.attacker[*].mobility.initialMovementHeading "uniform(0deg, 360deg)"
param *.attacker[*].mobility.initialMovementElevation "uniform(-90deg, 90deg)"
param *.attacker[*].mobility.angleDelta uniform(-10deg,10deg)
param *.attacker[*].mobility.rotationAxisAngle uniform(-10deg,10deg)
param *.attacker[*].mobility.speed uniform(10mps,20mps)
param *.attacker[*].mobility.faceForward false
param *.attacker*.wlan[0].typename "\"AckingWirelessInterface\""
param *.attacker*.wlan[0].radio.transmitter.communicationRange 300m
param *.attacker*.wlan[0].radio.displayCommunicationRange false

vector 0 FanetGrayHole.host[0].wlan[0].radio radioMode:vector ETV
attr interpolationmode sample-hold
attr source radioModeChanged
attr title "Radio mode, vector"
vector 1 FanetGrayHole.host[1].wlan[0].radio radioMode:vector ETV
attr interpolationmode sample-hold
attr source radioModeChanged
attr title "Radio mode, vector"
vector 2 FanetGrayHole.host[2].wlan[0].radio radioMode:vector ETV
attr interpolationmode sample-hold
attr source radioModeChanged
attr title "Radio mode, vector"
vector 3 FanetGrayHole.host[3].wlan[0].radio radioMode:vector ETV
attr interpolationmode sample-hold
attr source radioModeChanged
attr title "Radio mode, vector"
vector 4 FanetGrayHole.host[4].wlan[0].radio radioMode:vector ETV
attr interpolationmode sample-hold
attr source radioModeChanged
attr title "Radio mode, vector"
vector 5 FanetGrayHole.host[5].wlan[0].radio radioMode:vector ETV
attr interpolationmode sample-hold
attr source radioModeChanged
attr title "Radio mode, vector"
vector 6 FanetGrayHole.host[6].wlan[0].radio radioMode:vector ETV
attr interpolationmode sample-hold
attr source radioModeChanged
attr title "Radio mode, vector"
vector 7 FanetGrayHole.host[7].wlan[0].radio radioMode:vector ETV
attr interpolationmode sample-hold
attr source radioModeChanged
attr title "Radio mode, vector"
vector 8 FanetGrayHole.host[8].wlan[0].radio radioMode:vector ETV
attr interpolationmode sample-hold
attr source radioModeChanged
attr title "Radio mode, vector"
vector 9 FanetGrayHole.host[9].wlan[0].radio radioMode:vector ETV
attr interpolationmode sample-hold
attr source radioModeChanged
attr title "Radio mode, vector"
vector 10 FanetGrayHole.host[10].wlan[0].radio radioMode:vector ETV
attr interpolationmode sample-hold
attr source radioModeChanged
attr title "Radio mode, vector"
vector 11 FanetGrayHole.host[11].wlan[0].radio radioMode:vector ETV
attr interpolationmode sample-hold
attr source radioModeChanged
attr title "Radio mode, vector"
vector 12 FanetGrayHole.host[12].wlan[0].radio radioMode:vector ETV
attr interpolationmode sample-hold
attr source radioModeChanged
attr title "Radio mode, vector"
vector 13 FanetGrayHole.host[13].wlan[0].radio radioMode:vector ETV
attr interpolationmode sample-hold
attr source radioModeChanged
attr title "Radio mode, vector"
vector 14 FanetGrayHole.host[14].wlan[0].radio radioMode:vector ETV
attr interpolationmode sample-hold
attr source radioModeChanged
attr title "Radio mode, vector"
vector 15 FanetGrayHole.host[15].wlan[0].radio radioMode:vector ETV
attr interpolationmode sample-hold
attr source radioModeChanged
attr title "Radio mode, vector"
vector 16 FanetGrayHole.host[16].wlan[0].radio radioMode:vector ETV
attr interpolationmode sample-hold
attr source radioModeChanged
attr title "Radio mode, vector"
vector 17 FanetGrayHole.host[17].wlan[0].radio radioMode:vector ETV
attr interpolationmode sample-hold
attr source radioModeChanged
attr title "Radio mode, vector"
vector 18 FanetGrayHole.host[18].wlan[0].radio radioMode:vector ETV
attr interpolationmode sample-hold
attr source radioModeChanged
attr title "Radio mode, vector"
vector 19 FanetGrayHole.host[19].wlan[0].radio radioMode:vector ETV
attr interpolationmode sample-hold
attr source radioModeChanged
attr title "Radio mode, vector"
vector 20 FanetGrayHole.host[20].wlan[0].radio radioMode:vector ETV
attr interpolationmode sample-hold
attr source radioModeChanged
attr title "Radio mode, vector"
vector 21 FanetGrayHole.host[21].wlan[0].radio radioMode:vector ETV
attr interpolationmode sample-hold
attr source radioModeChanged
attr title "Radio mode, vector"
vector 22 FanetGrayHole.host[22].wlan[0].radio radioMode:vector ETV
attr interpolationmode sample-hold
attr source radioModeChanged
attr title "Radio mode, vector"
vector 23 FanetGrayHole.host[23].wlan[0].radio radioMode:vector ETV
attr interpolationmode sample-hold
attr source radioModeChanged
attr title "Radio mode, vector"
vector 24 FanetGrayHole.host[24].wlan[0].radio radioMode:vector ETV
attr interpolationmode sample-hold
attr source radioModeChanged
attr title "Radio mode, vector"
vector 25 FanetGrayHole.attacker[0].wlan[0].radio radioMode:vector ETV
attr interpolationmode sample-hold
attr source radioModeChanged
attr title "Radio mode, vector"
vector 26 FanetGrayHole.attacker[1].wlan[0].radio radioMode:vector ETV
attr interpolationmode sample-hold
attr source radioModeChanged
attr title "Radio mode, vector"
vector 27 FanetGrayHole.attacker[2].wlan[0].radio radioMode:vector ETV
attr interpolationmode sample-hold
attr source radioModeChanged
attr title "Radio mode, vector"
vector 28 FanetGrayHole.attacker[3].wlan[0].radio radioMode:vector ETV
attr interpolationmode sample-hold
attr source radioModeChanged
attr title "Radio mode, vector"
vector 29 FanetGrayHole.attacker[4].wlan[0].radio radioMode:vector ETV
attr interpolationmode sample-hold
attr source radioModeChanged
attr title "Radio mode, vector"
vector 30 FanetGrayHole.attacker[5].wlan[0].radio radioMode:vector ETV
attr interpolationmode sample-hold
attr source radioModeChanged
attr title "Radio mode, vector"
vector 31 FanetGrayHole.attacker[6].wlan[0].radio radioMode:vector ETV
attr interpolationmode sample-hold
attr source radioModeChanged
attr title "Radio mode, vector"
vector 32 FanetGrayHole.attacker[7].wlan[0].radio radioMode:vector ETV
attr interpolationmode sample-hold
attr source radioModeChanged
attr title "Radio mode, vector"
vector 33 FanetGrayHole.attacker[8].wlan[0].radio radioMode:vector ETV
attr interpolationmode sample-hold
attr source radioModeChanged
attr title "Radio mode, vector"
vector 34 FanetGrayHole.attacker[9].wlan[0].radio radioMode:vector ETV
attr interpolationmode sample-hold
attr source radioModeChanged
attr title "Radio mode, vector"
vector 35 FanetGrayHole.attacker[10].wlan[0].radio radioMode:vector ETV
attr interpolationmode sample-hold
attr source radioModeChanged
attr title "Radio mode, vector"
vector 36 FanetGrayHole.attacker[11].wlan[0].radio radioMode:vector ETV
attr interpolationmode sample-hold
attr source radioModeChanged
attr title "Radio mode, vector"
vector 37 FanetGrayHole.attacker[12].wlan[0].radio radioMode:vector ETV
attr interpolationmode sample-hold
attr source radioModeChanged
attr title "Radio mode, vector"
vector 38 FanetGrayHole.attacker[13].wlan[0].radio radioMode:vector ETV
attr interpolationmode sample-hold
attr source radioModeChanged
attr title "Radio mode, vector"
vector 39 FanetGrayHole.attacker[14].wlan[0].radio radioMode:vector ETV
attr interpolationmode sample-hold
attr source radioModeChanged
attr title "Radio mode, vector"
vector 40 FanetGrayHole.attacker[15].wlan[0].radio radioMode:vector ETV
attr interpolationmode sample-hold
attr source radioModeChanged
attr title "Radio mode, vector"
vector 41 FanetGrayHole.attacker[16].wlan[0].radio radioMode:vector ETV
attr interpolationmode sample-hold
attr source radioModeChanged
attr title "Radio mode, vector"
vector 42 FanetGrayHole.attacker[17].wlan[0].radio radioMode:vector ETV
attr interpolationmode sample-hold
attr source radioModeChanged
attr title "Radio mode, vector"
vector 43 FanetGrayHole.attacker[18].wlan[0].radio radioMode:vector ETV
attr interpolationmode sample-hold
attr source radioModeChanged
attr title "Radio mode, vector"
vector 44 FanetGrayHole.attacker[19].wlan[0].radio radioMode:vector ETV
attr interpolationmode sample-hold
attr source radioModeChanged
attr title "Radio mode, vector"
vector 45 FanetGrayHole.attacker[20].wlan[0].radio radioMode:vector ETV
attr interpolationmode sample-hold
attr source radioModeChanged
attr title "Radio mode, vector"
vector 46 FanetGrayHole.attacker[21].wlan[0].radio radioMode:vector ETV
attr interpolationmode sample-hold
attr source radioModeChanged
attr title "Radio mode, vector"
vector 47 FanetGrayHole.attacker[22].wlan[0].radio radioMode:vector ETV
attr interpolationmode sample-hold
attr source radioModeChanged
attr title "Radio mode, vector"
vector 48 FanetGrayHole.attacker[23].wlan[0].radio radioMode:vector ETV
attr interpolationmode sample-hold
attr source radioModeChanged
attr title "Radio mode, vector"
vector 49 FanetGrayHole.attacker[24].wlan[0].radio radioMode:vector ETV
attr interpolationmode sample-hold
attr source radioModeChanged
attr title "Radio mode, vector"
vector 50 FanetGrayHole.host[0].wlan[0].radio receptionState:vector ETV
attr interpolationmode sample-hold
attr source receptionStateChanged
attr title "Radio reception state, vector"
vector 51 FanetGrayHole.host[0].wlan[0].radio transmissionState:vector ETV
attr interpolationmode sample-hold
attr source transmissionStateChanged
attr title "Radio transmission state, vector"
vector 52 FanetGrayHole.host[1].wlan[0].radio receptionState:vector ETV
attr interpolationmode sample-hold
attr source receptionStateChanged
attr title "Radio reception state, vector"
vector 53 FanetGrayHole.host[1].wlan[0].radio transmissionState:vector ETV
attr interpolationmode sample-hold
attr source transmissionStateChanged
attr title "Radio transmission state, vector"
vector 54 FanetGrayHole.host[2].wlan[0].radio receptionState:vector ETV
attr interpolationmode sample-hold
attr source receptionStateChanged
attr title "Radio reception state, vector"
vector 55 FanetGrayHole.host[2].wlan[0].radio transmissionState:vector ETV
attr interpolationmode sample-hold
attr source transmissionStateChanged
attr title "Radio transmission state, vector"
vector 56 FanetGrayHole.host[3].wlan[0].radio receptionState:vector ETV
attr interpolationmode sample-hold
attr source receptionStateChanged
attr title "Radio reception state, vector"
vector 57 FanetGrayHole.host[3].wlan[0].radio transmissionState:vector ETV
attr interpolationmode sample-hold
attr source transmissionStateChanged
attr title "Radio transmission state, vector"
vector 58 FanetGrayHole.host[4].wlan[0].radio receptionState:vector ETV
attr interpolationmode sample-hold
attr source receptionStateChanged
attr title "Radio reception state, vector"
vector 59 FanetGrayHole.host[4].wlan[0].radio transmissionState:vector ETV
attr interpolationmode sample-hold
attr source transmissionStateChanged
attr title "Radio transmission state, vector"
vector 60 FanetGrayHole.host[5].wlan[0].radio receptionState:vector ETV
attr interpolationmode sample-hold
attr source receptionStateChanged
attr title "Radio reception state, vector"
vector 61 FanetGrayHole.host[5].wlan[0].radio transmissionState:vector ETV
attr interpolationmode sample-hold
attr source transmissionStateChanged
attr title "Radio transmission state, vector"
vector 62 FanetGrayHole.host[6].wlan[0].radio receptionState:vector ETV
attr interpolationmode sample-hold
attr source receptionStateChanged
attr title "Radio reception state, vector"
vector 63 FanetGrayHole.host[6].wlan[0].radio transmissionState:vector ETV
attr interpolationmode sample-hold
attr source transmissionStateChanged
attr title "Radio transmission state, vector"
vector 64 FanetGrayHole.host[7].wlan[0].radio receptionState:vector ETV
attr interpolationmode sample-hold
attr source receptionStateChanged
attr title "Radio reception state, vector"
vector 65 FanetGrayHole.host[7].wlan[0].radio transmissionState:vector ETV
attr interpolationmode sample-hold
attr source transmissionStateChanged
attr title "Radio transmission state, vector"
vector 66 FanetGrayHole.host[8].wlan[0].radio receptionState:vector ETV
attr interpolationmode sample-hold
attr source receptionStateChanged
attr title "Radio reception state, vector"
vector 67 FanetGrayHole.host[8].wlan[0].radio transmissionState:vector ETV
attr interpolationmode sample-hold
attr source transmissionStateChanged
attr title "Radio transmission state, vector"
vector 68 FanetGrayHole.host[9].wlan[0].radio receptionState:vector ETV
attr interpolationmode sample-hold
attr source receptionStateChanged
attr title "Radio reception state, vector"
vector 69 FanetGrayHole.host[9].wlan[0].radio transmissionState:vector ETV
attr interpolationmode sample-hold
attr source transmissionStateChanged
attr title "Radio transmission state, vector"
vector 70 FanetGrayHole.host[10].wlan[0].radio receptionState:vector ETV
attr interpolationmode sample-hold
attr source receptionStateChanged
attr title "Radio reception state, vector"
vector 71 FanetGrayHole.host[10].wlan[0].radio transmissionState:vector ETV
attr interpolationmode sample-hold
attr source transmissionStateChanged
attr title "Radio transmission state, vector"
vector 72 FanetGrayHole.host[11].wlan[0].radio receptionState:vector ETV
attr interpolationmode sample-hold
attr source receptionStateChanged
attr title "Radio reception state, vector"
vector 73 FanetGrayHole.host[11].wlan[0].radio transmissionState:vector ETV
attr interpolationmode sample-hold
attr source transmissionStateChanged
attr title "Radio transmission state, vector"
vector 74 FanetGrayHole.host[12].wlan[0].radio receptionState:vector ETV
attr interpolationmode sample-hold
attr source receptionStateChanged
attr title "Radio reception state, vector"
vector 75 FanetGrayHole.host[12].wlan[0].radio transmissionState:vector ETV
attr interpolationmode sample-hold
attr source transmissionStateChanged
attr title "Radio transmission state, vector"
vector 76 FanetGrayHole.host[13].wlan[0].radio receptionState:vector ETV
attr interpolationmode sample-hold
attr source receptionStateChanged
attr title "Radio reception state, vector"
vector 77 FanetGrayHole.host[13].wlan[0].radio transmissionState:vector ETV
attr interpolationmode sample-hold
attr source transmissionStateChanged
attr title "Radio transmission state, vector"
vector 78 FanetGrayHole.host[14].wlan[0].radio receptionState:vector ETV
attr interpolationmode sample-hold
attr source receptionStateChanged
attr title "Radio reception state, vector"
vector 79 FanetGrayHole.host[14].wlan[0].radio transmissionState:vector ETV
attr interpolationmode sample-hold
attr source transmissionStateChanged
attr title "Radio transmission state, vector"
vector 80 FanetGrayHole.host[15].wlan[0].radio receptionState:vector ETV
attr interpolationmode sample-hold
attr source receptionStateChanged
attr title "Radio reception state, vector"
vector 81 FanetGrayHole.host[15].wlan[0].radio transmissionState:vector ETV
attr interpolationmode sample-hold
attr source transmissionStateChanged
attr title "Radio transmission state, vector"
vector 82 FanetGrayHole.host[16].wlan[0].radio receptionState:vector ETV
attr interpolationmode sample-hold
attr source receptionStateChanged
attr title "Radio reception state, vector"
vector 83 FanetGrayHole.host[16].wlan[0].radio transmissionState:vector ETV
attr interpolationmode sample-hold
attr source transmissionStateChanged
attr title "Radio transmission state, vector"
vector 84 FanetGrayHole.host[17].wlan[0].radio receptionState:vector ETV
attr interpolationmode sample-hold
attr source receptionStateChanged
attr title "Radio reception state, vector"
vector 85 FanetGrayHole.host[17].wlan[0].radio transmissionState:vector ETV
attr interpolationmode sample-hold
attr source transmissionStateChanged
attr title "Radio transmission state, vector"
vector 86 FanetGrayHole.host[18].wlan[0].radio receptionState:vector ETV
attr interpolationmode sample-hold
attr source receptionStateChanged
attr title "Radio reception state, vector"
vector 87 FanetGrayHole.host[18].wlan[0].radio transmissionState:vector ETV
attr interpolationmode sample-hold
attr source transmissionStateChanged
attr title "Radio transmission state, vector"
vector 88 FanetGrayHole.host[19].wlan[0].radio receptionState:vector ETV
attr interpolationmode sample-hold
attr source receptionStateChanged
attr title "Radio reception state, vector"
vector 89 FanetGrayHole.host[19].wlan[0].radio transmissionState:vector ETV
attr interpolationmode sample-hold
attr source transmissionStateChanged
attr title "Radio transmission state, vector"
vector 90 FanetGrayHole.host[20].wlan[0].radio receptionState:vector ETV
attr interpolationmode sample-hold
attr source receptionStateChanged
attr title "Radio reception state, vector"
vector 91 FanetGrayHole.host[20].wlan[0].radio transmissionState:vector ETV
attr interpolationmode sample-hold
attr source transmissionStateChanged
attr title "Radio transmission state, vector"
vector 92 FanetGrayHole.host[21].wlan[0].radio receptionState:vector ETV
attr interpolationmode sample-hold
attr source receptionStateChanged
attr title "Radio reception state, vector"
vector 93 FanetGrayHole.host[21].wlan[0].radio transmissionState:vector ETV
attr interpolationmode sample-hold
attr source transmissionStateChanged
attr title "Radio transmission state, vector"
vector 94 FanetGrayHole.host[22].wlan[0].radio receptionState:vector ETV
attr interpolationmode sample-hold
attr source receptionStateChanged
attr title "Radio reception state, vector"
vector 95 FanetGrayHole.host[22].wlan[0].radio transmissionState:vector ETV
attr interpolationmode sample-hold
attr source transmissionStateChanged
attr title "Radio transmission state, vector"
vector 96 FanetGrayHole.host[23].wlan[0].radio receptionState:vector ETV
attr interpolationmode sample-hold
attr source receptionStateChanged
attr title "Radio reception state, vector"
vector 97 FanetGrayHole.host[23].wlan[0].radio transmissionState:vector ETV
attr interpolationmode sample-hold
attr source transmissionStateChanged
attr title "Radio transmission state, vector"
vector 98 FanetGrayHole.host[24].wlan[0].radio receptionState:vector ETV
attr interpolationmode sample-hold
attr source receptionStateChanged
attr title "Radio reception state, vector"
vector 99 FanetGrayHole.host[24].wlan[0].radio transmissionState:vector ETV
attr interpolationmode sample-hold
attr source transmissionStateChanged
attr title "Radio transmission state, vector"
vector 100 FanetGrayHole.attacker[0].wlan[0].radio receptionState:vector ETV
attr interpolationmode sample-hold
attr source receptionStateChanged
attr title "Radio reception state, vector"
vector 101 FanetGrayHole.attacker[0].wlan[0].radio transmissionState:vector ETV
attr interpolationmode sample-hold
attr source transmissionStateChanged
attr title "Radio transmission state, vector"
vector 102 FanetGrayHole.attacker[1].wlan[0].radio receptionState:vector ETV
attr interpolationmode sample-hold
attr source receptionStateChanged
attr title "Radio reception state, vector"
vector 103 FanetGrayHole.attacker[1].wlan[0].radio transmissionState:vector ETV
attr interpolationmode sample-hold
attr source transmissionStateChanged
attr title "Radio transmission state, vector"
vector 104 FanetGrayHole.attacker[2].wlan[0].radio receptionState:vector ETV
attr interpolationmode sample-hold
attr source receptionStateChanged
attr title "Radio reception state, vector"
vector 105 FanetGrayHole.attacker[2].wlan[0].radio transmissionState:vector ETV
attr interpolationmode sample-hold
attr source transmissionStateChanged
attr title "Radio transmission state, vector"
vector 106 FanetGrayHole.attacker[3].wlan[0].radio receptionState:vector ETV
attr interpolationmode sample-hold
attr source receptionStateChanged
attr title "Radio reception state, vector"
vector 107 FanetGrayHole.attacker[3].wlan[0].radio transmissionState:vector ETV
attr interpolationmode sample-hold
attr source transmissionStateChanged
attr title "Radio transmission state, vector"
vector 108 FanetGrayHole.attacker[4].wlan[0].radio receptionState:vector ETV
attr interpolationmode sample-hold
attr source receptionStateChanged
attr title "Radio reception state, vector"
vector 109 FanetGrayHole.attacker[4].wlan[0].radio transmissionState:vector ETV
attr interpolationmode sample-hold
attr source transmissionStateChanged
attr title "Radio transmission state, vector"
vector 110 FanetGrayHole.attacker[5].wlan[0].radio receptionState:vector ETV
attr interpolationmode sample-hold
attr source receptionStateChanged
attr title "Radio reception state, vector"
vector 111 FanetGrayHole.attacker[5].wlan[0].radio transmissionState:vector ETV
attr interpolationmode sample-hold
attr source transmissionStateChanged
attr title "Radio transmission state, vector"
vector 112 FanetGrayHole.attacker[6].wlan[0].radio receptionState:vector ETV
attr interpolationmode sample-hold
attr source receptionStateChanged
attr title "Radio reception state, vector"
vector 113 FanetGrayHole.attacker[6].wlan[0].radio transmissionState:vector ETV
attr interpolationmode sample-hold
attr source transmissionStateChanged
attr title "Radio transmission state, vector"
vector 114 FanetGrayHole.attacker[7].wlan[0].radio receptionState:vector ETV
attr interpolationmode sample-hold
attr source receptionStateChanged
attr title "Radio reception state, vector"
vector 115 FanetGrayHole.attacker[7].wlan[0].radio transmissionState:vector ETV
attr interpolationmode sample-hold
attr source transmissionStateChanged
attr title "Radio transmission state, vector"
vector 116 FanetGrayHole.attacker[8].wlan[0].radio receptionState:vector ETV
attr interpolationmode sample-hold
attr source receptionStateChanged
attr title "Radio reception state, vector"
vector 117 FanetGrayHole.attacker[8].wlan[0].radio transmissionState:vector ETV
attr interpolationmode sample-hold
attr source transmissionStateChanged
attr title "Radio transmission state, vector"
vector 118 FanetGrayHole.attacker[9].wlan[0].radio receptionState:vector ETV
attr interpolationmode sample-hold
attr source receptionStateChanged
attr title "Radio reception state, vector"
vector 119 FanetGrayHole.attacker[9].wlan[0].radio transmissionState:vector ETV
attr interpolationmode sample-hold
attr source transmissionStateChanged
attr title "Radio transmission state, vector"
vector 120 FanetGrayHole.attacker[10].wlan[0].radio receptionState:vector ETV
attr interpolationmode sample-hold
attr source receptionStateChanged
attr title "Radio reception state, vector"
vector 121 FanetGrayHole.attacker[10].wlan[0].radio transmissionState:vector ETV
attr interpolationmode sample-hold
attr source transmissionStateChanged
attr title "Radio transmission state, vector"
vector 122 FanetGrayHole.attacker[11].wlan[0].radio receptionState:vector ETV
attr interpolationmode sample-hold
attr source receptionStateChanged
attr title "Radio reception state, vector"
vector 123 FanetGrayHole.attacker[11].wlan[0].radio transmissionState:vector ETV
attr interpolationmode sample-hold
attr source transmissionStateChanged
attr title "Radio transmission state, vector"
vector 124 FanetGrayHole.attacker[12].wlan[0].radio receptionState:vector ETV
attr interpolationmode sample-hold
attr source receptionStateChanged
attr title "Radio reception state, vector"
vector 125 FanetGrayHole.attacker[12].wlan[0].radio transmissionState:vector ETV
attr interpolationmode sample-hold
attr source transmissionStateChanged
attr title "Radio transmission state, vector"
vector 126 FanetGrayHole.attacker[13].wlan[0].radio receptionState:vector ETV
attr interpolationmode sample-hold
attr source receptionStateChanged
attr title "Radio reception state, vector"
vector 127 FanetGrayHole.attacker[13].wlan[0].radio transmissionState:vector ETV
attr interpolationmode sample-hold
attr source transmissionStateChanged
attr title "Radio transmission state, vector"
vector 128 FanetGrayHole.attacker[14].wlan[0].radio receptionState:vector ETV
attr interpolationmode sample-hold
attr source receptionStateChanged
attr title "Radio reception state, vector"
vector 129 FanetGrayHole.attacker[14].wlan[0].radio transmissionState:vector ETV
attr interpolationmode sample-hold
attr source transmissionStateChanged
attr title "Radio transmission state, vector"
vector 130 FanetGrayHole.attacker[15].wlan[0].radio receptionState:vector ETV
attr interpolationmode sample-hold
attr source receptionStateChanged
attr title "Radio reception state, vector"
vector 131 FanetGrayHole.attacker[15].wlan[0].radio transmissionState:vector ETV
attr interpolationmode sample-hold
attr source transmissionStateChanged
attr title "Radio transmission state, vector"
vector 132 FanetGrayHole.attacker[16].wlan[0].radio receptionState:vector ETV
attr interpolationmode sample-hold
attr source receptionStateChanged
attr title "Radio reception state, vector"
vector 133 FanetGrayHole.attacker[16].wlan[0].radio transmissionState:vector ETV
attr interpolationmode sample-hold
attr source transmissionStateChanged
attr title "Radio transmission state, vector"
vector 134 FanetGrayHole.attacker[17].wlan[0].radio receptionState:vector ETV
attr interpolationmode sample-hold
attr source receptionStateChanged
attr title "Radio reception state, vector"
vector 135 FanetGrayHole.attacker[17].wlan[0].radio transmissionState:vector ETV
attr interpolationmode sample-hold
attr source transmissionStateChanged
attr title "Radio transmission state, vector"
vector 136 FanetGrayHole.attacker[18].wlan[0].radio receptionState:vector ETV
attr interpolationmode sample-hold
attr source receptionStateChanged
attr title "Radio reception state, vector"
vector 137 FanetGrayHole.attacker[18].wlan[0].radio transmissionState:vector ETV
attr interpolationmode sample-hold
attr source transmissionStateChanged
attr title "Radio transmission state, vector"
vector 138 FanetGrayHole.attacker[19].wlan[0].radio receptionState:vector ETV
attr interpolationmode sample-hold
attr source receptionStateChanged
attr title "Radio reception state, vector"
vector 139 FanetGrayHole.attacker[19].wlan[0].radio transmissionState:vector ETV
attr interpolationmode sample-hold
attr source transmissionStateChanged
attr title "Radio transmission state, vector"
vector 140 FanetGrayHole.attacker[20].wlan[0].radio receptionState:vector ETV
attr interpolationmode sample-hold
attr source receptionStateChanged
attr title "Radio reception state, vector"
vector 141 FanetGrayHole.attacker[20].wlan[0].radio transmissionState:vector ETV
attr interpolationmode sample-hold
attr source transmissionStateChanged
attr title "Radio transmission state, vector"
vector 142 FanetGrayHole.attacker[21].wlan[0].radio receptionState:vector ETV
attr interpolationmode sample-hold
attr source receptionStateChanged
attr title "Radio reception state, vector"
vector 143 FanetGrayHole.attacker[21].wlan[0].radio transmissionState:vector ETV
attr interpolationmode sample-hold
attr source transmissionStateChanged
attr title "Radio transmission state, vector"
vector 144 FanetGrayHole.attacker[22].wlan[0].radio receptionState:vector ETV
attr interpolationmode sample-hold
attr source receptionStateChanged
attr title "Radio reception state, vector"
vector 145 FanetGrayHole.attacker[22].wlan[0].radio transmissionState:vector ETV
attr interpolationmode sample-hold
attr source transmissionStateChanged
attr title "Radio transmission state, vector"
vector 146 FanetGrayHole.attacker[23].wlan[0].radio receptionState:vector ETV
attr interpolationmode sample-hold
attr source receptionStateChanged
attr title "Radio reception state, vector"
vector 147 FanetGrayHole.attacker[23].wlan[0].radio transmissionState:vector ETV
attr interpolationmode sample-hold
attr source transmissionStateChanged
attr title "Radio transmission state, vector"
vector 148 FanetGrayHole.attacker[24].wlan[0].radio receptionState:vector ETV
attr interpolationmode sample-hold
attr source receptionStateChanged
attr title "Radio reception state, vector"
vector 149 FanetGrayHole.attacker[24].wlan[0].radio transmissionState:vector ETV
attr interpolationmode sample-hold
attr source transmissionStateChanged
attr title "Radio transmission state, vector"
vector 150 FanetGrayHole.attacker[7].wlan[0].mac rcvdPkFromHl:vector(packetBytes) ETV
attr interpolationmode none
attr source packetReceivedFromUpper
attr title "packets received from higher layer, vector(packetBytes)"
vector 151 FanetGrayHole.attacker[7].wlan[0].mac.queue packetPushed:vector(packetBytes) ETV
attr interpolationmode none
attr title "packet pushed, vector(packetBytes)"
vector 152 FanetGrayHole.attacker[7].wlan[0].mac.queue queueLength:vector ETV
attr interpolationmode sample-hold
attr source "count(packetPushed) - count(packetPopped) - count(packetRemoved) - count(packetDropped)"
attr title "queue length, vector"
vector 153 FanetGrayHole.attacker[7].wlan[0].mac.queue packetPopped:vector(packetBytes) ETV
attr interpolationmode none
attr title "packet popped, vector(packetBytes)"
vector 154 FanetGrayHole.attacker[7].wlan[0].mac.queue queueingTime:vector ETV
attr interpolationmode none
attr source queueingTime(packetPopped)
attr title "queueing times, vector"
attr unit s
vector 155 FanetGrayHole.attacker[7].wlan[0].mac sentDownPk:vector(packetBytes) ETV
attr interpolationmode none
attr source packetSentToLower
attr title "packets sent to lower layer, vector(packetBytes)"
vector 156 FanetGrayHole.host[4].wlan[0].mac rcvdPkFromLl:vector(packetBytes) ETV
attr interpolationmode none
attr source packetReceivedFromLower
attr title "packets received from lower layer, vector(packetBytes)"
vector 157 FanetGrayHole.host[4].wlan[0].mac passedUpPk:vector(packetBytes) ETV
attr interpolationmode none
attr source packetSentToUpper
attr title "packets passed to higher layer, vector(packetBytes)"
vector 158 FanetGrayHole.host[15].wlan[0].mac rcvdPkFromLl:vector(packetBytes) ETV
attr interpolationmode none
attr source packetReceivedFromLower
attr title "packets received from lower layer, vector(packetBytes)"
vector 159 FanetGrayHole.host[15].wlan[0].mac passedUpPk:vector(packetBytes) ETV
attr interpolationmode none
attr source packetSentToUpper
attr title "packets passed to higher layer, vector(packetBytes)"
vector 160 FanetGrayHole.attacker[8].wlan[0].mac rcvdPkFromLl:vector(packetBytes) ETV
attr interpolationmode none
attr source packetReceivedFromLower
attr title "packets received from lower layer, vector(packetBytes)"
vector 161 FanetGrayHole.attacker[8].wlan[0].mac passedUpPk:vector(packetBytes) ETV
attr interpolationmode none
attr source packetSentToUpper
attr title "packets passed to higher layer, vector(packetBytes)"
vector 162 FanetGrayHole.host[16].wlan[0].mac rcvdPkFromLl:vector(packetBytes) ETV
attr interpolationmode none
attr source packetReceivedFromLower
attr title "packets received from lower layer, vector(packetBytes)"
vector 163 FanetGrayHole.host[16].wlan[0].mac passedUpPk:vector(packetBytes) ETV
attr interpolationmode none
attr source packetSentToUpper
attr title "packets passed to higher layer, vector(packetBytes)"
vector 164 FanetGrayHole.attacker[10].wlan[0].mac rcvdPkFromLl:vector(packetBytes) ETV
attr interpolationmode none
attr source packetReceivedFromLower
attr title "packets received from lower layer, vector(packetBytes)"
vector 165 FanetGrayHole.attacker[10].wlan[0].mac passedUpPk:vector(packetBytes) ETV
attr interpolationmode none
attr source packetSentToUpper
attr title "packets passed to higher layer, vector(packetBytes)"
vector 166 FanetGrayHole.host[18].wlan[0].mac rcvdPkFromLl:vector(packetBytes) ETV
attr interpolationmode none
attr source packetReceivedFromLower
attr title "packets received from lower layer, vector(packetBytes)"
vector 167 FanetGrayHole.host[18].wlan[0].mac passedUpPk:vector(packetBytes) ETV
attr interpolationmode none
attr source packetSentToUpper
attr title "packets passed to higher layer, vector(packetBytes)"
vector 168 FanetGrayHole.attacker[4].wlan[0].mac rcvdPkFromLl:vector(packetBytes) ETV
attr interpolationmode none
attr source packetReceivedFromLower
attr title "packets received from lower layer, vector(packetBytes)"
vector 169 FanetGrayHole.attacker[4].wlan[0].mac passedUpPk:vector(packetBytes) ETV
attr interpolationmode none
attr source packetSentToUpper
attr title "packets passed to higher layer, vector(packetBytes)"
vector 170 FanetGrayHole.host[7].wlan[0].mac rcvdPkFromLl:vector(packetBytes) ETV
attr interpolationmode none
attr source packetReceivedFromLower
attr title "packets received from lower layer, vector(packetBytes)"
vector 171 FanetGrayHole.host[7].wlan[0].mac passedUpPk:vector(packetBytes) ETV
attr interpolationmode none
attr source packetSentToUpper
attr title "packets passed to higher layer, vector(packetBytes)"
vector 172 FanetGrayHole.attacker[11].wlan[0].mac rcvdPkFromLl:vector(packetBytes) ETV
attr interpolationmode none
attr source packetReceivedFromLower
attr title "packets received from lower layer, vector(packetBytes)"
vector 173 FanetGrayHole.attacker[11].wlan[0].mac passedUpPk:vector(packetBytes) ETV
attr interpolationmode none
attr source packetSentToUpper
attr title "packets passed to higher layer, vector(packetBytes)"
vector 174 FanetGrayHole.host[15].wlan[0].mac rcvdPkFromHl:vector(packetBytes) ETV
attr interpolationmode none
attr source packetReceivedFromUpper
attr title "packets received from higher layer, vector(packetBytes)"
vector 175 FanetGrayHole.host[15].wlan[0].mac.queue packetPushed:vector(packetBytes) ETV
attr interpolationmode none
attr title "packet pushed, vector(packetBytes)"
vector 176 FanetGrayHole.host[15].wlan[0].mac.queue queueLength:vector ETV
attr interpolationmode sample-hold
attr source "count(packetPushed) - count(packetPopped) - count(packetRemoved) - count(packetDropped)"
attr title "queue length, vector"
vector 177 FanetGrayHole.host[15].wlan[0].mac.queue packetPopped:vector(packetBytes) ETV
attr interpolationmode none
attr title "packet popped, vector(packetBytes)"
vector 178 FanetGrayHole.host[15].wlan[0].mac.queue queueingTime:vector ETV
attr interpolationmode none
attr source queueingTime(packetPopped)
attr title "queueing times, vector"
attr unit s
vector 179 FanetGrayHole.host[15].wlan[0].mac sentDownPk:vector(packetBytes) ETV
attr interpolationmode none
attr source packetSentToLower
attr title "packets sent to lower layer, vector(packetBytes)"
vector 180 FanetGrayHole.attacker[7].wlan[0].mac rcvdPkFromLl:vector(packetBytes) ETV
attr interpolationmode none
attr source packetReceivedFromLower
attr title "packets received from lower layer, vector(packetBytes)"
vector 181 FanetGrayHole.attacker[7].wlan[0].mac passedUpPk:vector(packetBytes) ETV
attr interpolationmode none
attr source packetSentToUpper
attr title "packets passed to higher layer, vector(packetBytes)"
vector 182 FanetGrayHole.host[24].wlan[0].mac rcvdPkFromLl:vector(packetBytes) ETV
attr interpolationmode none
attr source packetReceivedFromLower
attr title "packets received from lower layer, vector(packetBytes)"
vector 183 FanetGrayHole.host[24].wlan[0].mac passedUpPk:vector(packetBytes) ETV
attr interpolationmode none
attr source packetSentToUpper
attr title "packets passed to higher layer, vector(packetBytes)"
vector 184 FanetGrayHole.attacker[3].wlan[0].mac rcvdPkFromHl:vector(packetBytes) ETV
attr interpolationmode none
attr source packetReceivedFromUpper
attr title "packets received from higher layer, vector(packetBytes)"
vector 185 FanetGrayHole.attacker[3].wlan[0].mac.queue packetPushed:vector(packetBytes) ETV
attr interpolationmode none
attr title "packet pushed, vector(packetBytes)"
vector 186 FanetGrayHole.attacker[3].wlan[0].mac.queue queueLength:vector ETV
attr interpolationmode sample-hold
attr source "count(packetPushed) - count(packetPopped) - count(packetRemoved) - count(packetDropped)"
attr title "queue length, vector"
vector 187 FanetGrayHole.attacker[3].wlan[0].mac.queue packetPopped:vector(packetBytes) ETV
attr interpolationmode none
attr title "packet popped, vector(packetBytes)"
vector 188 FanetGrayHole.attacker[3].wlan[0].mac.queue queueingTime:vector ETV
attr interpolationmode none
attr source queueingTime(packetPopped)
attr title "queueing times, vector"
attr unit s
vector 189 FanetGrayHole.attacker[3].wlan[0].mac sentDownPk:vector(packetBytes) ETV
attr interpolationmode none
attr source packetSentToLower
attr title "packets sent to lower layer, vector(packetBytes)"
vector 190 FanetGrayHole.host[2].wlan[0].mac rcvdPkFromLl:vector(packetBytes) ETV
attr interpolationmode none
attr source packetReceivedFromLower
attr title "packets received from lower layer, vector(packetBytes)"
vector 191 FanetGrayHole.host[2].wlan[0].mac passedUpPk:vector(packetBytes) ETV
attr interpolationmode none
attr source packetSentToUpper
attr title "packets passed to higher layer, vector(packetBytes)"
vector 192 FanetGrayHole.attacker[6].wlan[0].mac rcvdPkFromLl:vector(packetBytes) ETV
attr interpolationmode none
attr source packetReceivedFromLower
attr title "packets received from lower layer, vector(packetBytes)"
vector 193 FanetGrayHole.attacker[6].wlan[0].mac passedUpPk:vector(packetBytes) ETV
attr interpolationmode none
attr source packetSentToUpper
attr title "packets passed to higher layer, vector(packetBytes)"
vector 194 FanetGrayHole.host[19].wlan[0].mac rcvdPkFromLl:vector(packetBytes) ETV
attr interpolationmode none
attr source packetReceivedFromLower
attr title "packets received from lower layer, vector(packetBytes)"
vector 195 FanetGrayHole.host[19].wlan[0].mac passedUpPk:vector(packetBytes) ETV
attr interpolationmode none
attr source packetSentToUpper
attr title "packets passed to higher layer, vector(packetBytes)"
vector 196 FanetGrayHole.attacker[9].wlan[0].mac rcvdPkFromLl:vector(packetBytes) ETV
attr interpolationmode none
attr source packetReceivedFromLower
attr title "packets received from lower layer, vector(packetBytes)"
vector 197 FanetGrayHole.attacker[9].wlan[0].mac passedUpPk:vector(packetBytes) ETV
attr interpolationmode none
attr source packetSentToUpper
attr title "packets passed to higher layer, vector(packetBytes)"
vector 198 FanetGrayHole.host[3].wlan[0].mac rcvdPkFromLl:vector(packetBytes) ETV
attr interpolationmode none
attr source packetReceivedFromLower
attr title "packets received from lower layer, vector(packetBytes)"
vector 199 FanetGrayHole.host[3].wlan[0].mac passedUpPk:vector(packetBytes) ETV
attr interpolationmode none
attr source packetSentToUpper
attr title "packets passed to higher layer, vector(packetBytes)"
vector 200 FanetGrayHole.host[20].wlan[0].mac rcvdPkFromLl:vector(packetBytes) ETV
attr interpolationmode none
attr source packetReceivedFromLower
attr title "packets received from lower layer, vector(packetBytes)"
vector 201 FanetGrayHole.host[20].wlan[0].mac passedUpPk:vector(packetBytes) ETV
attr interpolationmode none
attr source packetSentToUpper
attr title "packets passed to higher layer, vector(packetBytes)"
vector 202 FanetGrayHole.attacker[5].wlan[0].mac rcvdPkFromHl:vector(packetBytes) ETV
attr interpolationmode none
attr source packetReceivedFromUpper
attr title "packets received from higher layer, vector(packetBytes)"
vector 203 FanetGrayHole.attacker[5].wlan[0].mac.queue packetPushed:vector(packetBytes) ETV
attr interpolationmode none
attr title "packet pushed, vector(packetBytes)"
vector 204 FanetGrayHole.attacker[5].wlan[0].mac.queue queueLength:vector ETV
attr interpolationmode sample-hold
attr source "count(packetPushed) - count(packetPopped) - count(packetRemoved) - count(packetDropped)"
attr title "queue length, vector"
vector 205 FanetGrayHole.attacker[5].wlan[0].mac.queue packetPopped:vector(packetBytes) ETV
attr interpolationmode none
attr title "packet popped, vector(packetBytes)"
vector 206 FanetGrayHole.attacker[5].wlan[0].mac.queue queueingTime:vector ETV
attr interpolationmode none
attr source queueingTime(packetPopped)
attr title "queueing times, vector"
attr unit s
vector 207 FanetGrayHole.attacker[5].wlan[0].mac sentDownPk:vector(packetBytes) ETV
attr interpolationmode none
attr source packetSentToLower
attr title "packets sent to lower layer, vector(packetBytes)"
vector 208 FanetGrayHole.attacker[23].wlan[0].mac rcvdPkFromLl:vector(packetBytes) ETV
attr interpolationmode none
attr source packetReceivedFromLower
attr title "packets received from lower layer, vector(packetBytes)"
vector 209 FanetGrayHole.attacker[23].wlan[0].mac passedUpPk:vector(packetBytes) ETV
attr interpolationmode none
attr source packetSentToUpper
attr title "packets passed to higher layer, vector(packetBytes)"
vector 210 FanetGrayHole.host[0].wlan[0].mac rcvdPkFromLl:vector(packetBytes) ETV
attr interpolationmode none
attr source packetReceivedFromLower
attr title "packets received from lower layer, vector(packetBytes)"
vector 211 FanetGrayHole.host[0].wlan[0].mac passedUpPk:vector(packetBytes) ETV
attr interpolationmode none
attr source packetSentToUpper
attr title "packets passed to higher layer, vector(packetBytes)"
vector 212 FanetGrayHole.host[9].wlan[0].mac rcvdPkFromLl:vector(packetBytes) ETV
attr interpolationmode none
attr source packetReceivedFromLower
attr title "packets received from lower layer, vector(packetBytes)"
vector 213 FanetGrayHole.host[9].wlan[0].mac passedUpPk:vector(packetBytes) ETV
attr interpolationmode none
attr source packetSentToUpper
attr title "packets passed to higher layer, vector(packetBytes)"
vector 214 FanetGrayHole.host[12].wlan[0].mac rcvdPkFromLl:vector(packetBytes) ETV
attr interpolationmode none
attr source packetReceivedFromLower
attr title "packets received from lower layer, vector(packetBytes)"
vector 215 FanetGrayHole.host[12].wlan[0].mac passedUpPk:vector(packetBytes) ETV
attr interpolationmode none
attr source packetSentToUpper
attr title "packets passed to higher layer, vector(packetBytes)"
vector 216 FanetGrayHole.attacker[18].wlan[0].mac rcvdPkFromLl:vector(packetBytes) ETV
attr interpolationmode none
attr source packetReceivedFromLower
attr title "packets received from lower layer, vector(packetBytes)"
vector 217 FanetGrayHole.attacker[18].wlan[0].mac passedUpPk:vector(packetBytes) ETV
attr interpolationmode none
attr source packetSentToUpper
attr title "packets passed to higher layer, vector(packetBytes)"
vector 218 FanetGrayHole.attacker[15].wlan[0].mac rcvdPkFromLl:vector(packetBytes) ETV
attr interpolationmode none
attr source packetReceivedFromLower
attr title "packets received from lower layer, vector(packetBytes)"
vector 219 FanetGrayHole.attacker[15].wlan[0].mac passedUpPk:vector(packetBytes) ETV
attr interpolationmode none
attr source packetSentToUpper
attr title "packets passed to higher layer, vector(packetBytes)"
vector 220 FanetGrayHole.attacker[2].wlan[0].mac rcvdPkFromLl:vector(packetBytes) ETV
attr interpolationmode none
attr source packetReceivedFromLower
attr title "packets received from lower layer, vector(packetBytes)"
vector 221 FanetGrayHole.attacker[2].wlan[0].mac passedUpPk:vector(packetBytes) ETV
attr interpolationmode none
attr source packetSentToUpper
attr title "packets passed to higher layer, vector(packetBytes)"
vector 222 FanetGrayHole.attacker[23].wlan[0].mac rcvdPkFromHl:vector(packetBytes) ETV
attr interpolationmode none
attr source packetReceivedFromUpper
attr title "packets received from higher layer, vector(packetBytes)"
vector 223 FanetGrayHole.attacker[23].wlan[0].mac.queue packetPushed:vector(packetBytes) ETV
attr interpolationmode none
attr title "packet pushed, vector(packetBytes)"
vector 224 FanetGrayHole.attacker[23].wlan[0].mac.queue queueLength:vector ETV
attr interpolationmode sample-hold
attr source "count(packetPushed) - count(packetPopped) - count(packetRemoved) - count(packetDropped)"
attr title "queue length, vector"
vector 225 FanetGrayHole.attacker[23].wlan[0].mac.queue packetPopped:vector(packetBytes) ETV
attr interpolationmode none
attr title "packet popped, vector(packetBytes)"
vector 226 FanetGrayHole.attacker[23].wlan[0].mac.queue queueingTime:vector ETV
attr interpolationmode none
attr source queueingTime(packetPopped)
attr title "queueing times, vector"
attr unit s
vector 227 FanetGrayHole.attacker[23].wlan[0].mac sentDownPk:vector(packetBytes) ETV
attr interpolationmode none
attr source packetSentToLower
attr title "packets sent to lower layer, vector(packetBytes)"
vector 228 FanetGrayHole.attacker[5].wlan[0].mac rcvdPkFromLl:vector(packetBytes) ETV
attr interpolationmode none
attr source packetReceivedFromLower
attr title "packets received from lower layer, vector(packetBytes)"
vector 229 FanetGrayHole.attacker[5].wlan[0].mac passedUpPk:vector(packetBytes) ETV
attr interpolationmode none
attr source packetSentToUpper
attr title "packets passed to higher layer, vector(packetBytes)"
vector 230 FanetGrayHole.attacker[12].wlan[0].mac rcvdPkFromHl:vector(packetBytes) ETV
attr interpolationmode none
attr source packetReceivedFromUpper
attr title "packets received from higher layer, vector(packetBytes)"
vector 231 FanetGrayHole.attacker[12].wlan[0].mac.queue packetPushed:vector(packetBytes) ETV
attr interpolationmode none
attr title "packet pushed, vector(packetBytes)"
vector 232 FanetGrayHole.attacker[12].wlan[0].mac.queue queueLength:vector ETV
attr interpolationmode sample-hold
attr source "count(packetPushed) - count(packetPopped) - count(packetRemoved) - count(packetDropped)"
attr title "queue length, vector"
vector 233 FanetGrayHole.attacker[12].wlan[0].mac.queue packetPopped:vector(packetBytes) ETV
attr interpolationmode none
attr title "packet popped, vector(packetBytes)"
vector 234 FanetGrayHole.attacker[12].wlan[0].mac.queue queueingTime:vector ETV
attr interpolationmode none
attr source queueingTime(packetPopped)
attr title "queueing times, vector"
attr unit s
vector 235 FanetGrayHole.attacker[12].wlan[0].mac sentDownPk:vector(packetBytes) ETV
attr interpolationmode none
attr source packetSentToLower
attr title "packets sent to lower layer, vector(packetBytes)"
vector 236 FanetGrayHole.host[6].wlan[0].mac rcvdPkFromLl:vector(packetBytes) ETV
attr interpolationmode none
attr source packetReceivedFromLower
attr title "packets received from lower layer, vector(packetBytes)"
vector 237 FanetGrayHole.host[6].wlan[0].mac passedUpPk:vector(packetBytes) ETV
attr interpolationmode none
attr source packetSentToUpper
attr title "packets passed to higher layer, vector(packetBytes)"
vector 238 FanetGrayHole.host[22].wlan[0].mac rcvdPkFromLl:vector(packetBytes) ETV
attr interpolationmode none
attr source packetReceivedFromLower
attr title "packets received from lower layer, vector(packetBytes)"
vector 239 FanetGrayHole.host[22].wlan[0].mac passedUpPk:vector(packetBytes) ETV
attr interpolationmode none
attr source packetSentToUpper
attr title "packets passed to higher layer, vector(packetBytes)"
vector 240 FanetGrayHole.host[17].wlan[0].mac rcvdPkFromHl:vector(packetBytes) ETV
attr interpolationmode none
attr source packetReceivedFromUpper
attr title "packets received from higher layer, vector(packetBytes)"
vector 241 FanetGrayHole.host[17].wlan[0].mac.queue packetPushed:vector(packetBytes) ETV
attr interpolationmode none
attr title "packet pushed, vector(packetBytes)"
vector 242 FanetGrayHole.host[17].wlan[0].mac.queue queueLength:vector ETV
attr interpolationmode sample-hold
attr source "count(packetPushed) - count(packetPopped) - count(packetRemoved) - count(packetDropped)"
attr title "queue length, vector"
vector 243 FanetGrayHole.host[17].wlan[0].mac.queue packetPopped:vector(packetBytes) ETV
attr interpolationmode none
attr title "packet popped, vector(packetBytes)"
vector 244 FanetGrayHole.host[17].wlan[0].mac.queue queueingTime:vector ETV
attr interpolationmode none
attr source queueingTime(packetPopped)
attr title "queueing times, vector"
attr unit s
vector 245 FanetGrayHole.host[17].wlan[0].mac sentDownPk:vector(packetBytes) ETV
attr interpolationmode none
attr source packetSentToLower
attr title "packets sent to lower layer, vector(packetBytes)"
vector 246 FanetGrayHole.attacker[24].wlan[0].mac rcvdPkFromLl:vector(packetBytes) ETV
attr interpolationmode none
attr source packetReceivedFromLower
attr title "packets received from lower layer, vector(packetBytes)"
vector 247 FanetGrayHole.attacker[24].wlan[0].mac passedUpPk:vector(packetBytes) ETV
attr interpolationmode none
attr source packetSentToUpper
attr title "packets passed to higher layer, vector(packetBytes)"
vector 248 FanetGrayHole.attacker[22].wlan[0].mac rcvdPkFromLl:vector(packetBytes) ETV
attr interpolationmode none
attr source packetReceivedFromLower
attr title "packets received from lower layer, vector(packetBytes)"
vector 249 FanetGrayHole.attacker[22].wlan[0].mac passedUpPk:vector(packetBytes) ETV
attr interpolationmode none
attr source packetSentToUpper
attr title "packets passed to higher layer, vector(packetBytes)"
vector 250 FanetGrayHole.host[5].wlan[0].mac rcvdPkFromLl:vector(packetBytes) ETV
attr interpolationmode none
attr source packetReceivedFromLower
attr title "packets received from lower layer, vector(packetBytes)"
vector 251 FanetGrayHole.host[5].wlan[0].mac passedUpPk:vector(packetBytes) ETV
attr interpolationmode none
attr source packetSentToUpper
attr title "packets passed to higher layer, vector(packetBytes)"
vector 252 FanetGrayHole.attacker[14].wlan[0].mac rcvdPkFromLl:vector(packetBytes) ETV
attr interpolationmode none
attr source packetReceivedFromLower
attr title "packets received from lower layer, vector(packetBytes)"
vector 253 FanetGrayHole.attacker[14].wlan[0].mac passedUpPk:vector(packetBytes) ETV
attr interpolationmode none
attr source packetSentToUpper
attr title "packets passed to higher layer, vector(packetBytes)"
vector 254 FanetGrayHole.attacker[16].wlan[0].mac rcvdPkFromLl:vector(packetBytes) ETV
attr interpolationmode none
attr source packetReceivedFromLower
attr title "packets received from lower layer, vector(packetBytes)"
vector 255 FanetGrayHole.attacker[16].wlan[0].mac passedUpPk:vector(packetBytes) ETV
attr interpolationmode none
attr source packetSentToUpper
attr title "packets passed to higher layer, vector(packetBytes)"
vector 256 FanetGrayHole.attacker[19].wlan[0].mac rcvdPkFromLl:vector(packetBytes) ETV
attr interpolationmode none
attr source packetReceivedFromLower
attr title "packets received from lower layer, vector(packetBytes)"
vector 257 FanetGrayHole.attacker[19].wlan[0].mac passedUpPk:vector(packetBytes) ETV
attr interpolationmode none
attr source packetSentToUpper
attr title "packets passed to higher layer, vector(packetBytes)"
vector 258 FanetGrayHole.host[13].wlan[0].mac rcvdPkFromHl:vector(packetBytes) ETV
attr interpolationmode none
attr source packetReceivedFromUpper
attr title "packets received from higher layer, vector(packetBytes)"
vector 259 FanetGrayHole.host[13].wlan[0].mac.queue packetPushed:vector(packetBytes) ETV
attr interpolationmode none
attr title "packet pushed, vector(packetBytes)"
vector 260 FanetGrayHole.host[13].wlan[0].mac.queue queueLength:vector ETV
attr interpolationmode sample-hold
attr source "count(packetPushed) - count(packetPopped) - count(packetRemoved) - count(packetDropped)"
attr title "queue length, vector"
vector 261 FanetGrayHole.host[13].wlan[0].mac.queue packetPopped:vector(packetBytes) ETV
attr interpolationmode none
attr title "packet popped, vector(packetBytes)"
vector 262 FanetGrayHole.host[13].wlan[0].mac.queue queueingTime:vector ETV
attr interpolationmode none
attr source queueingTime(packetPopped)
attr title "queueing times, vector"
attr unit s
vector 263 FanetGrayHole.host[13].wlan[0].mac sentDownPk:vector(packetBytes) ETV
attr interpolationmode none
attr source packetSentToLower
attr title "packets sent to lower layer, vector(packetBytes)"
vector 264 FanetGrayHole.attacker[4].wlan[0].mac rcvdPkFromHl:vector(packetBytes) ETV
attr interpolationmode none
attr source packetReceivedFromUpper
attr title "packets received from higher layer, vector(packetBytes)"
vector 265 FanetGrayHole.attacker[4].wlan[0].mac.queue packetPushed:vector(packetBytes) ETV
attr interpolationmode none
attr title "packet pushed, vector(packetBytes)"
vector 266 FanetGrayHole.attacker[4].wlan[0].mac.queue queueLength:vector ETV
attr interpolationmode sample-hold
attr source "count(packetPushed) - count(packetPopped) - count(packetRemoved) - count(packetDropped)"
attr title "queue length, vector"
vector 267 FanetGrayHole.attacker[4].wlan[0].mac.queue packetPopped:vector(packetBytes) ETV
attr interpolationmode none
attr title "packet popped, vector(packetBytes)"
vector 268 FanetGrayHole.attacker[4].wlan[0].mac.queue queueingTime:vector ETV
attr interpolationmode none
attr source queueingTime(packetPopped)
attr title "queueing times, vector"
attr unit s
vector 269 FanetGrayHole.attacker[4].wlan[0].mac sentDownPk:vector(packetBytes) ETV
attr interpolationmode none
attr source packetSentToLower
attr title "packets sent to lower layer, vector(packetBytes)"
vector 270 FanetGrayHole.host[1].wlan[0].mac rcvdPkFromLl:vector(packetBytes) ETV
attr interpolationmode none
attr source packetReceivedFromLower
attr title "packets received from lower layer, vector(packetBytes)"
vector 271 FanetGrayHole.host[1].wlan[0].mac passedUpPk:vector(packetBytes) ETV
attr interpolationmode none
attr source packetSentToUpper
attr title "packets passed to higher layer, vector(packetBytes)"
vector 272 FanetGrayHole.host[13].wlan[0].mac rcvdPkFromLl:vector(packetBytes) ETV
attr interpolationmode none
attr source packetReceivedFromLower
attr title "packets received from lower layer, vector(packetBytes)"
vector 273 FanetGrayHole.host[13].wlan[0].mac passedUpPk:vector(packetBytes) ETV
attr interpolationmode none
attr source packetSentToUpper
attr title "packets passed to higher layer, vector(packetBytes)"
vector 274 FanetGrayHole.attacker[8].wlan[0].mac rcvdPkFromHl:vector(packetBytes) ETV
attr interpolationmode none
attr source packetReceivedFromUpper
attr title "packets received from higher layer, vector(packetBytes)"
vector 275 FanetGrayHole.attacker[8].wlan[0].mac.queue packetPushed:vector(packetBytes) ETV
attr interpolationmode none
attr title "packet pushed, vector(packetBytes)"
vector 276 FanetGrayHole.attacker[8].wlan[0].mac.queue queueLength:vector ETV
attr interpolationmode sample-hold
attr source "count(packetPushed) - count(packetPopped) - count(packetRemoved) - count(packetDropped)"
attr title "queue length, vector"
vector 277 FanetGrayHole.attacker[8].wlan[0].mac.queue packetPopped:vector(packetBytes) ETV
attr interpolationmode none
attr title "packet popped, vector(packetBytes)"
vector 278 FanetGrayHole.attacker[8].wlan[0].mac.queue queueingTime:vector ETV
attr interpolationmode none
attr source queueingTime(packetPopped)
attr title "queueing times, vector"
attr unit s
vector 279 FanetGrayHole.attacker[8].wlan[0].mac sentDownPk:vector(packetBytes) ETV
attr interpolationmode none
attr source packetSentToLower
attr title "packets sent to lower layer, vector(packetBytes)"
vector 280 FanetGrayHole.host[18].wlan[0].mac rcvdPkFromHl:vector(packetBytes) ETV
attr interpolationmode none
attr source packetReceivedFromUpper
attr title "packets received from higher layer, vector(packetBytes)"
vector 281 FanetGrayHole.host[18].wlan[0].mac.queue packetPushed:vector(packetBytes) ETV
attr interpolationmode none
attr title "packet pushed, vector(packetBytes)"
vector 282 FanetGrayHole.host[18].wlan[0].mac.queue queueLength:vector ETV
attr interpolationmode sample-hold
attr source "count(packetPushed) - count(packetPopped) - count(packetRemoved) - count(packetDropped)"
attr title "queue length, vector"
vector 283 FanetGrayHole.host[18].wlan[0].mac.queue packetPopped:vector(packetBytes) ETV
attr interpolationmode none
attr title "packet popped, vector(packetBytes)"
vector 284 FanetGrayHole.host[18].wlan[0].mac.queue queueingTime:vector ETV
attr interpolationmode none
attr source queueingTime(packetPopped)
attr title "queueing times, vector"
attr unit s
vector 285 FanetGrayHole.host[18].wlan[0].mac sentDownPk:vector(packetBytes) ETV
attr interpolationmode none
attr source packetSentToLower
attr title "packets sent to lower layer, vector(packetBytes)"
vector 286 FanetGrayHole.host[11].wlan[0].mac rcvdPkFromHl:vector(packetBytes) ETV
attr interpolationmode none
attr source packetReceivedFromUpper
attr title "packets received from higher layer, vector(packetBytes)"
vector 287 FanetGrayHole.host[11].wlan[0].mac.queue packetPushed:vector(packetBytes) ETV
attr interpolationmode none
attr title "packet pushed, vector(packetBytes)"
vector 288 FanetGrayHole.host[11].wlan[0].mac.queue queueLength:vector ETV
attr interpolationmode sample-hold
attr source "count(packetPushed) - count(packetPopped) - count(packetRemoved) - count(packetDropped)"
attr title "queue length, vector"
vector 289 FanetGrayHole.host[11].wlan[0].mac.queue packetPopped:vector(packetBytes) ETV
attr interpolationmode none
attr title "packet popped, vector(packetBytes)"
vector 290 FanetGrayHole.host[11].wlan[0].mac.queue queueingTime:vector ETV
attr interpolationmode none
attr source queueingTime(packetPopped)
attr title "queueing times, vector"
attr unit s
vector 291 FanetGrayHole.host[11].wlan[0].mac sentDownPk:vector(packetBytes) ETV
attr interpolationmode none
attr source packetSentToLower
attr title "packets sent to lower layer, vector(packetBytes)"
vector 292 FanetGrayHole.host[23].wlan[0].mac rcvdPkFromLl:vector(packetBytes) ETV
attr interpolationmode none
attr source packetReceivedFromLower
attr title "packets received from lower layer, vector(packetBytes)"
vector 293 FanetGrayHole.host[23].wlan[0].mac passedUpPk:vector(packetBytes) ETV
attr interpolationmode none
attr source packetSentToUpper
attr title "packets passed to higher layer, vector(packetBytes)"
vector 294 FanetGrayHole.attacker[20].wlan[0].mac rcvdPkFromLl:vector(packetBytes) ETV
attr interpolationmode none
attr source packetReceivedFromLower
attr title "packets received from lower layer, vector(packetBytes)"
vector 295 FanetGrayHole.attacker[20].wlan[0].mac passedUpPk:vector(packetBytes) ETV
attr interpolationmode none
attr source packetSentToUpper
attr title "packets passed to higher layer, vector(packetBytes)"
vector 296 FanetGrayHole.attacker[0].wlan[0].mac rcvdPkFromHl:vector(packetBytes) ETV
attr interpolationmode none
attr source packetReceivedFromUpper
attr title "packets received from higher layer, vector(packetBytes)"
vector 297 FanetGrayHole.attacker[0].wlan[0].mac.queue packetPushed:vector(packetBytes) ETV
attr interpolationmode none
attr title "packet pushed, vector(packetBytes)"
vector 298 FanetGrayHole.attacker[0].wlan[0].mac.queue queueLength:vector ETV
attr interpolationmode sample-hold
attr source "count(packetPushed) - count(packetPopped) - count(packetRemoved) - count(packetDropped)"
attr title "queue length, vector"
vector 299 FanetGrayHole.attacker[0].wlan[0].mac.queue packetPopped:vector(packetBytes) ETV
attr interpolationmode none
attr title "packet popped, vector(packetBytes)"
vector 300 FanetGrayHole.attacker[0].wlan[0].mac.queue queueingTime:vector ETV
attr interpolationmode none
attr source queueingTime(packetPopped)
attr title "queueing times, vector"
attr unit s
vector 301 FanetGrayHole.attacker[0].wlan[0].mac sentDownPk:vector(packetBytes) ETV
attr interpolationmode none
attr source packetSentToLower
attr title "packets sent to lower layer, vector(packetBytes)"
vector 302 FanetGrayHole.attacker[17].wlan[0].mac rcvdPkFromLl:vector(packetBytes) ETV
attr interpolationmode none
attr source packetReceivedFromLower
attr title "packets received from lower layer, vector(packetBytes)"
vector 303 FanetGrayHole.attacker[17].wlan[0].mac passedUpPk:vector(packetBytes) ETV
attr interpolationmode none
attr source packetSentToUpper
attr title "packets passed to higher layer, vector(packetBytes)"
vector 304 FanetGrayHole.host[8].wlan[0].mac rcvdPkFromHl:vector(packetBytes) ETV
attr interpolationmode none
attr source packetReceivedFromUpper
attr title "packets received from higher layer, vector(packetBytes)"
vector 305 FanetGrayHole.host[8].wlan[0].mac.queue packetPushed:vector(packetBytes) ETV
attr interpolationmode none
attr title "packet pushed, vector(packetBytes)"
vector 306 FanetGrayHole.host[8].wlan[0].mac.queue queueLength:vector ETV
attr interpolationmode sample-hold
attr source "count(packetPushed) - count(packetPopped) - count(packetRemoved) - count(packetDropped)"
attr title "queue length, vector"
vector 307 FanetGrayHole.host[8].wlan[0].mac.queue packetPopped:vector(packetBytes) ETV
attr interpolationmode none
attr title "packet popped, vector(packetBytes)"
vector 308 FanetGrayHole.host[8].wlan[0].mac.queue queueingTime:vector ETV
attr interpolationmode none
attr source queueingTime(packetPopped)
attr title "queueing times, vector"
attr unit s
vector 309 FanetGrayHole.host[8].wlan[0].mac sentDownPk:vector(packetBytes) ETV
attr interpolationmode none
attr source packetSentToLower
attr title "packets sent to lower layer, vector(packetBytes)"
vector 310 FanetGrayHole.host[12].wlan[0].mac rcvdPkFromHl:vector(packetBytes) ETV
attr interpolationmode none
attr source packetReceivedFromUpper
attr title "packets received from higher layer, vector(packetBytes)"
vector 311 FanetGrayHole.host[12].wlan[0].mac.queue packetPushed:vector(packetBytes) ETV
attr interpolationmode none
attr title "packet pushed, vector(packetBytes)"
vector 312 FanetGrayHole.host[12].wlan[0].mac.queue queueLength:vector ETV
attr interpolationmode sample-hold
attr source "count(packetPushed) - count(packetPopped) - count(packetRemoved) - count(packetDropped)"
attr title "queue length, vector"
vector 313 FanetGrayHole.host[12].wlan[0].mac.queue packetPopped:vector(packetBytes) ETV
attr interpolationmode none
attr title "packet popped, vector(packetBytes)"
vector 314 FanetGrayHole.host[12].wlan[0].mac.queue queueingTime:vector ETV
attr interpolationmode none
attr source queueingTime(packetPopped)
attr title "queueing times, vector"
attr unit s
vector 315 FanetGrayHole.host[12].wlan[0].mac sentDownPk:vector(packetBytes) ETV
attr interpolationmode none
attr source packetSentToLower
attr title "packets sent to lower layer, vector(packetBytes)"
vector 316 FanetGrayHole.attacker[19].wlan[0].mac rcvdPkFromHl:vector(packetBytes) ETV
attr interpolationmode none
attr source packetReceivedFromUpper
attr title "packets received from higher layer, vector(packetBytes)"
vector 317 FanetGrayHole.attacker[19].wlan[0].mac.queue packetPushed:vector(packetBytes) ETV
attr interpolationmode none
attr title "packet pushed, vector(packetBytes)"
vector 318 FanetGrayHole.attacker[19].wlan[0].mac.queue queueLength:vector ETV
attr interpolationmode sample-hold
attr source "count(packetPushed) - count(packetPopped) - count(packetRemoved) - count(packetDropped)"
attr title "queue length, vector"
vector 319 FanetGrayHole.attacker[19].wlan[0].mac.queue packetPopped:vector(packetBytes) ETV
attr interpolationmode none
attr title "packet popped, vector(packetBytes)"
vector 320 FanetGrayHole.attacker[19].wlan[0].mac.queue queueingTime:vector ETV
attr interpolationmode none
attr source queueingTime(packetPopped)
attr title "queueing times, vector"
attr unit s
vector 321 FanetGrayHole.attacker[19].wlan[0].mac sentDownPk:vector(packetBytes) ETV
attr interpolationmode none
attr source packetSentToLower
attr title "packets sent to lower layer, vector(packetBytes)"
vector 322 FanetGrayHole.host[10].wlan[0].mac rcvdPkFromLl:vector(packetBytes) ETV
attr interpolationmode none
attr source packetReceivedFromLower
attr title "packets received from lower layer, vector(packetBytes)"
vector 323 FanetGrayHole.host[10].wlan[0].mac passedUpPk:vector(packetBytes) ETV
attr interpolationmode none
attr source packetSentToUpper
attr title "packets passed to higher layer, vector(packetBytes)"
vector 324 FanetGrayHole.host[17].wlan[0].mac rcvdPkFromLl:vector(packetBytes) ETV
attr interpolationmode none
attr source packetReceivedFromLower
attr title "packets received from lower layer, vector(packetBytes)"
vector 325 FanetGrayHole.host[17].wlan[0].mac passedUpPk:vector(packetBytes) ETV
attr interpolationmode none
attr source packetSentToUpper
attr title "packets passed to higher layer, vector(packetBytes)"
vector 326 FanetGrayHole.attacker[16].wlan[0].mac rcvdPkFromHl:vector(packetBytes) ETV
attr interpolationmode none
attr source packetReceivedFromUpper
attr title "packets received from higher layer, vector(packetBytes)"
vector 327 FanetGrayHole.attacker[16].wlan[0].mac.queue packetPushed:vector(packetBytes) ETV
attr interpolationmode none
attr title "packet pushed, vector(packetBytes)"
vector 328 FanetGrayHole.attacker[16].wlan[0].mac.queue queueLength:vector ETV
attr interpolationmode sample-hold
attr source "count(packetPushed) - count(packetPopped) - count(packetRemoved) - count(packetDropped)"
attr title "queue length, vector"
vector 329 FanetGrayHole.attacker[16].wlan[0].mac.queue packetPopped:vector(packetBytes) ETV
attr interpolationmode none
attr title "packet popped, vector(packetBytes)"
vector 330 FanetGrayHole.attacker[16].wlan[0].mac.queue queueingTime:vector ETV
attr interpolationmode none
attr source queueingTime(packetPopped)
attr title "queueing times, vector"
attr unit s
vector 331 FanetGrayHole.attacker[16].wlan[0].mac sentDownPk:vector(packetBytes) ETV
attr interpolationmode none
attr source packetSentToLower
attr title "packets sent to lower layer, vector(packetBytes)"
vector 332 FanetGrayHole.attacker[3].wlan[0].mac rcvdPkFromLl:vector(packetBytes) ETV
attr interpolationmode none
attr source packetReceivedFromLower
attr title "packets received from lower layer, vector(packetBytes)"
vector 333 FanetGrayHole.attacker[3].wlan[0].mac passedUpPk:vector(packetBytes) ETV
attr interpolationmode none
attr source packetSentToUpper
attr title "packets passed to higher layer, vector(packetBytes)"
vector 334 FanetGrayHole.host[19].wlan[0].mac rcvdPkFromHl:vector(packetBytes) ETV
attr interpolationmode none
attr source packetReceivedFromUpper
attr title "packets received from higher layer, vector(packetBytes)"
vector 335 FanetGrayHole.host[19].wlan[0].mac.queue packetPushed:vector(packetBytes) ETV
attr interpolationmode none
attr title "packet pushed, vector(packetBytes)"
vector 336 FanetGrayHole.host[19].wlan[0].mac.queue queueLength:vector ETV
attr interpolationmode sample-hold
attr source "count(packetPushed) - count(packetPopped) - count(packetRemoved) - count(packetDropped)"
attr title "queue length, vector"
vector 337 FanetGrayHole.host[19].wlan[0].mac.queue packetPopped:vector(packetBytes) ETV
attr interpolationmode none
attr title "packet popped, vector(packetBytes)"
vector 338 FanetGrayHole.host[19].wlan[0].mac.queue queueingTime:vector ETV
attr interpolationmode none
attr source queueingTime(packetPopped)
attr title "queueing times, vector"
attr unit s
vector 339 FanetGrayHole.host[19].wlan[0].mac sentDownPk:vector(packetBytes) ETV
attr interpolationmode none
attr source packetSentToLower
attr title "packets sent to lower layer, vector(packetBytes)"
vector 340 FanetGrayHole.host[23].wlan[0].mac rcvdPkFromHl:vector(packetBytes) ETV
attr interpolationmode none
attr source packetReceivedFromUpper
attr title "packets received from higher layer, vector(packetBytes)"
vector 341 FanetGrayHole.host[23].wlan[0].mac.queue packetPushed:vector(packetBytes) ETV
attr interpolationmode none
attr title "packet pushed, vector(packetBytes)"
vector 342 FanetGrayHole.host[23].wlan[0].mac.queue queueLength:vector ETV
attr interpolationmode sample-hold
attr source "count(packetPushed) - count(packetPopped) - count(packetRemoved) - count(packetDropped)"
attr title "queue length, vector"
vector 343 FanetGrayHole.host[23].wlan[0].mac.queue packetPopped:vector(packetBytes) ETV
attr interpolationmode none
attr title "packet popped, vector(packetBytes)"
vector 344 FanetGrayHole.host[23].wlan[0].mac.queue queueingTime:vector ETV
attr interpolationmode none
attr source queueingTime(packetPopped)
attr title "queueing times, vector"
attr unit s
vector 345 FanetGrayHole.host[23].wlan[0].mac sentDownPk:vector(packetBytes) ETV
attr interpolationmode none
attr source packetSentToLower
attr title "packets sent to lower layer, vector(packetBytes)"
vector 346 FanetGrayHole.host[11].wlan[0].mac rcvdPkFromLl:vector(packetBytes) ETV
attr interpolationmode none
attr source packetReceivedFromLower
attr title "packets received from lower layer, vector(packetBytes)"
vector 347 FanetGrayHole.host[11].wlan[0].mac passedUpPk:vector(packetBytes) ETV
attr interpolationmode none
attr source packetSentToUpper
attr title "packets passed to higher layer, vector(packetBytes)"
vector 348 FanetGrayHole.attacker[20].wlan[0].mac rcvdPkFromHl:vector(packetBytes) ETV
attr interpolationmode none
attr source packetReceivedFromUpper
attr title "packets received from higher layer, vector(packetBytes)"
vector 349 FanetGrayHole.attacker[20].wlan[0].mac.queue packetPushed:vector(packetBytes) ETV
attr interpolationmode none
attr title "packet pushed, vector(packetBytes)"
vector 350 FanetGrayHole.attacker[20].wlan[0].mac.queue queueLength:vector ETV
attr interpolationmode sample-hold
attr source "count(packetPushed) - count(packetPopped) - count(packetRemoved) - count(packetDropped)"
attr title "queue length, vector"
vector 351 FanetGrayHole.attacker[20].wlan[0].mac.queue packetPopped:vector(packetBytes) ETV
attr interpolationmode none
attr title "packet popped, vector(packetBytes)"
vector 352 FanetGrayHole.attacker[20].wlan[0].mac.queue queueingTime:vector ETV
attr interpolationmode none
attr source queueingTime(packetPopped)
attr title "queueing times, vector"
attr unit s
vector 353 FanetGrayHole.attacker[20].wlan[0].mac sentDownPk:vector(packetBytes) ETV
attr interpolationmode none
attr source packetSentToLower
attr title "packets sent to lower layer, vector(packetBytes)"
vector 354 FanetGrayHole.host[22].wlan[0].mac rcvdPkFromHl:vector(packetBytes) ETV
attr interpolationmode none
attr source packetReceivedFromUpper
attr title "packets received from higher layer, vector(packetBytes)"
vector 355 FanetGrayHole.host[22].wlan[0].mac.queue packetPushed:vector(packetBytes) ETV
attr interpolationmode none
attr title "packet pushed, vector(packetBytes)"
vector 356 FanetGrayHole.host[22].wlan[0].mac.queue queueLength:vector ETV
attr interpolationmode sample-hold
attr source "count(packetPushed) - count(packetPopped) - count(packetRemoved) - count(packetDropped)"
attr title "queue length, vector"
vector 357 FanetGrayHole.host[22].wlan[0].mac.queue packetPopped:vector(packetBytes) ETV
attr interpolationmode none
attr title "packet popped, vector(packetBytes)"
vector 358 FanetGrayHole.host[22].wlan[0].mac.queue queueingTime:vector ETV
attr interpolationmode none
attr source queueingTime(packetPopped)
attr title "queueing times, vector"
attr unit s
vector 359 FanetGrayHole.host[22].wlan[0].mac sentDownPk:vector(packetBytes) ETV
attr interpolationmode none
attr source packetSentToLower
attr title "packets sent to lower layer, vector(packetBytes)"
vector 360 FanetGrayHole.attacker[12].wlan[0].mac rcvdPkFromLl:vector(packetBytes) ETV
attr interpolationmode none
attr source packetReceivedFromLower
attr title "packets received from lower layer, vector(packetBytes)"
vector 361 FanetGrayHole.attacker[12].wlan[0].mac passedUpPk:vector(packetBytes) ETV
attr interpolationmode none
attr source packetSentToUpper
attr title "packets passed to higher layer, vector(packetBytes)"
vector 362 FanetGrayHole.host[6].wlan[0].mac rcvdPkFromHl:vector(packetBytes) ETV
attr interpolationmode none
attr source packetReceivedFromUpper
attr title "packets received from higher layer, vector(packetBytes)"
vector 363 FanetGrayHole.host[6].wlan[0].mac.queue packetPushed:vector(packetBytes) ETV
attr interpolationmode none
attr title "packet pushed, vector(packetBytes)"
vector 364 FanetGrayHole.host[6].wlan[0].mac.queue queueLength:vector ETV
attr interpolationmode sample-hold
attr source "count(packetPushed) - count(packetPopped) - count(packetRemoved) - count(packetDropped)"
attr title "queue length, vector"
vector 365 FanetGrayHole.host[6].wlan[0].mac.queue packetPopped:vector(packetBytes) ETV
attr interpolationmode none
attr title "packet popped, vector(packetBytes)"
vector 366 FanetGrayHole.host[6].wlan[0].mac.queue queueingTime:vector ETV
attr interpolationmode none
attr source queueingTime(packetPopped)
attr title "queueing times, vector"
attr unit s
vector 367 FanetGrayHole.host[6].wlan[0].mac sentDownPk:vector(packetBytes) ETV
attr interpolationmode none
attr source packetSentToLower
attr title "packets sent to lower layer, vector(packetBytes)"
vector 368 FanetGrayHole.host[0].wlan[0].mac rcvdPkFromHl:vector(packetBytes) ETV
attr interpolationmode none
attr source packetReceivedFromUpper
attr title "packets received from higher layer, vector(packetBytes)"
vector 369 FanetGrayHole.host[0].wlan[0].mac.queue packetPushed:vector(packetBytes) ETV
attr interpolationmode none
attr title "packet pushed, vector(packetBytes)"
vector 370 FanetGrayHole.host[0].wlan[0].mac.queue queueLength:vector ETV
attr interpolationmode sample-hold
attr source "count(packetPushed) - count(packetPopped) - count(packetRemoved) - count(packetDropped)"
attr title "queue length, vector"
vector 371 FanetGrayHole.host[0].wlan[0].mac.queue packetPopped:vector(packetBytes) ETV
attr interpolationmode none
attr title "packet popped, vector(packetBytes)"
vector 372 FanetGrayHole.host[0].wlan[0].mac.queue queueingTime:vector ETV
attr interpolationmode none
attr source queueingTime(packetPopped)
attr title "queueing times, vector"
attr unit s
vector 373 FanetGrayHole.host[0].wlan[0].mac sentDownPk:vector(packetBytes) ETV
attr interpolationmode none
attr source packetSentToLower
attr title "packets sent to lower layer, vector(packetBytes)"
vector 374 FanetGrayHole.host[24].wlan[0].mac rcvdPkFromHl:vector(packetBytes) ETV
attr interpolationmode none
attr source packetReceivedFromUpper
attr title "packets received from higher layer, vector(packetBytes)"
vector 375 FanetGrayHole.host[24].wlan[0].mac.queue packetPushed:vector(packetBytes) ETV
attr interpolationmode none
attr title "packet pushed, vector(packetBytes)"
vector 376 FanetGrayHole.host[24].wlan[0].mac.queue queueLength:vector ETV
attr interpolationmode sample-hold
attr source "count(packetPushed) - count(packetPopped) - count(packetRemoved) - count(packetDropped)"
attr title "queue length, vector"
vector 377 FanetGrayHole.host[24].wlan[0].mac.queue packetPopped:vector(packetBytes) ETV
attr interpolationmode none
attr title "packet popped, vector(packetBytes)"
vector 378 FanetGrayHole.host[24].wlan[0].mac.queue queueingTime:vector ETV
attr interpolationmode none
attr source queueingTime(packetPopped)
attr title "queueing times, vector"
attr unit s
vector 379 FanetGrayHole.host[24].wlan[0].mac sentDownPk:vector(packetBytes) ETV
attr interpolationmode none
attr source packetSentToLower
attr title "packets sent to lower layer, vector(packetBytes)"
vector 380 FanetGrayHole.host[21].wlan[0].mac rcvdPkFromLl:vector(packetBytes) ETV
attr interpolationmode none
attr source packetReceivedFromLower
attr title "packets received from lower layer, vector(packetBytes)"
vector 381 FanetGrayHole.host[21].wlan[0].mac passedUpPk:vector(packetBytes) ETV
attr interpolationmode none
attr source packetSentToUpper
attr title "packets passed to higher layer, vector(packetBytes)"
vector 382 FanetGrayHole.host[14].wlan[0].mac rcvdPkFromLl:vector(packetBytes) ETV
attr interpolationmode none
attr source packetReceivedFromLower
attr title "packets received from lower layer, vector(packetBytes)"
vector 383 FanetGrayHole.host[14].wlan[0].mac passedUpPk:vector(packetBytes) ETV
attr interpolationmode none
attr source packetSentToUpper
attr title "packets passed to higher layer, vector(packetBytes)"
vector 384 FanetGrayHole.host[1].wlan[0].mac rcvdPkFromHl:vector(packetBytes) ETV
attr interpolationmode none
attr source packetReceivedFromUpper
[...]
370	2627919 31853 7938 617156 10.488135023043 499.33489381378 1078 0 3 545 555
371	2659772 17440 7938 617156 10.488135023043 499.33489381378 539 40 1068 523224 556706112
372	2677212 16503 7938 617156 10.488135023043 499.33489381378 539 0 0.176810249822 2.283287446095 0.17128949730361
373	2693715 17440 7938 617156 10.488135023043 499.33489381378 539 56 1084 531848 573587264
374	2711155 1496 8181 615263 10.680445637554 498.169722505843 49 40 40 1960 78400
375	2712651 1496 8181 615263 10.680445637554 498.169722505843 49 40 40 1960 78400
376	2714147 2894 8181 615263 10.680445637554 498.169722505843 98 0 1 49 49
377	2717041 1496 8181 615263 10.680445637554 498.169722505843 49 40 40 1960 78400
378	2718537 1447 8181 615263 10.680445637554 498.169722505843 49 0 0 0 0
379	2719984 1496 8181 615263 10.680445637554 498.169722505843 49 56 56 2744 153664
380	2721480 9735 8238 616279 10.680468933576 498.823367724147 315 56 1084 54648 43176960
381	2731215 8551 8238 616279 10.680468933576 498.823367724147 279 40 40 11160 446400
382	2739766 15982 8246 616255 10.680469257904 498.823367302826 511 56 1084 220852 220751536
383	2755748 10042 8246 616255 10.680469257904 498.823367302826 328 40 1068 17232 5080896
384	2765790 1467 8447 605448 10.928446163889 491.074870910961 48 40 40 1920 76800
385	2767257 1467 8447 605448 10.928446163889 491.074870910961 48 40 40 1920 76800
386	2768724 2838 8447 605448 10.928446163889 491.074870910961 96 0 1 48 48
387	2771562 1467 8447 605448 10.928446163889 491.074870910961 48 40 40 1920 76800
388	2773029 1419 8447 605448 10.928446163889 491.074870910961 48 0 0 0 0
389	2774448 1467 8447 605448 10.928446163889 491.074870910961 48 56 56 2688 150528
390	2775915 15885 8564 617152 11 499.331695891465 488 1000 1000 488000 488000000
391	2791800 15885 8616 617153 11 499.331695891465 488 1008 1008 491904 495839232
392	2807685 591 8676 590424 11.000365894406 479.131164667107 19 1084 1084 20596 22326064
393	2808276 4273 8678 617217 11.00036594201 499.335260004564 134 1084 1084 145256 157457504
394	2812549 2164 8680 590422 11.000365951302 479.131164628852 69 1084 1084 74796 81078864
395	2814713 3795 8682 604714 11.000365985 490.455728286525 117 1084 1084 126828 137481552
396	2818508 1911 8684 610328 11.000366015107 493.958771148165 59 1084 1084 63956 69328304
397	2820419 3577 8687 164450 11.000366229458 135.435193892082 113 1084 1084 122492 132781328
398	2823996 682 8689 607731 11.000366240721 492.209383131658 22 1084 1084 23848 25851232
399	2824678 1575 8691 610316 11.000366248965 493.958770605036 48 1084 1084 52032 56402688
400	2826253 935 8694 502237 11.000366271139 407.250937827511 29 1084 1084 31436 34076624
401	2827188 3301 8698 607735 11.000366303557 492.209383338477 104 1084 1084 112736 122205824
402	2830489 819 8701 539618 11.000366322137 437.722277606503 25 1084 1084 27100 29376400
403	2831308 3914 8703 498229 11.000366322178 404.069699863198 119 1084 1084 128996 139831664
404	2835222 1069 8788 610221 11.00073158379 493.95840526085 33 1084 1084 35772 38776848
405	2836291 525 8798 103260 11.000731905691 87.14365694053 17 1084 1084 18428 19975952
406	2836816 3644 8804 544907 11.000732036973 442.494896493643 111 1084 1084 120324 130431216
407	2840460 2775 8811 610324 11.000732089484 493.958770903464 87 1084 1084 94308 102229872
408	2843235 1404 8852 604419 11.027633703779 490.405055887528 46 40 40 1840 73600
409	2844639 1404 8852 604419 11.027633703779 490.405055887528 46 40 40 1840 73600
410	2846043 2716 8852 604419 11.027633703779 490.405055887528 92 0 1 46 46
411	2848759 1404 8852 604419 11.027633703779 490.405055887528 46 40 40 1840 73600
412	2850163 1358 8852 604419 11.027633703779 490.405055887528 46 0 0 0 0
413	2851521 1404 8852 604419 11.027633703779 490.405055887528 46 56 56 2576 144256
414	2852925 1459 9080 614816 11.235636963975 497.7092950861 48 40 40 1920 76800
415	2854384 1459 9080 614816 11.235636963975 497.7092950861 48 40 40 1920 76800
416	2855843 2822 9080 614816 11.235636963975 497.7092950861 96 0 1 48 48
417	2858665 1459 9080 614816 11.235636963975 497.7092950861 48 40 40 1920 76800
418	2860124 1411 9080 614816 11.235636963975 497.7092950861 48 0 0 0 0
419	2861535 1459 9080 614816 11.235636963975 497.7092950861 48 56 56 2688 150528
420	2862994 1563 9314 616198 11.458941150922 498.823344078843 51 40 1068 4096 2359648
421	2864557 1563 9314 616198 11.458941150922 498.823344078843 51 40 1068 4096 2359648
422	2866120 3016 9314 616198 11.458941150922 498.823344078843 102 0 1 51 51
423	2869136 1563 9314 616198 11.458941150922 498.823344078843 51 40 1068 4096 2359648
424	2870699 1508 9314 616198 11.458941150922 498.823344078843 51 0 0 0 0
425	2872207 1563 9314 616198 11.458941150922 498.823344078843 51 56 1084 4912 2503776
426	2873770 1463 9451 612215 11.481718765572 495.806941951163 48 40 40 1920 76800
427	2875233 1463 9451 612215 11.481718765572 495.806941951163 48 40 40 1920 76800
428	2876696 2830 9451 612215 11.481718765572 495.806941951163 96 0 1 48 48
429	2879526 1463 9451 612215 11.481718765572 495.806941951163 48 40 40 1920 76800
430	2880989 1415 9451 612215 11.481718765572 495.806941951163 48 0 0 0 0
431	2882404 1463 9451 612215 11.481718765572 495.806941951163 48 56 56 2688 150528
432	2883867 1632 9735 611349 11.788795336615 494.825576453007 53 40 1068 8288 6918944
433	2885499 1632 9735 611349 11.788795336615 494.825576453007 53 40 1068 8288 6918944
434	2887131 3134 9735 611349 11.788795336615 494.825576453007 106 0 1 53 53
435	2890265 1632 9735 611349 11.788795336615 494.825576453007 53 40 1068 8288 6918944
436	2891897 1567 9735 611349 11.788795336615 494.825576453007 53 0 0 0 0
437	2893464 1632 9735 611349 11.788795336615 494.825576453007 53 56 1084 9136 7197728
438	2895096 12783 9804 617841 11.78881878288 499.605057493197 409 56 1084 157572 154804144
439	2907879 8471 9804 617841 11.78881878288 499.605057493197 278 40 40 11120 444800
440	2916350 1502 10190 614937 12.151893649716 497.713018516081 49 40 40 1960 78400
441	2917852 1502 10190 614937 12.151893649716 497.713018516081 49 40 40 1960 78400
442	2919354 2906 10190 614937 12.151893649716 497.713018516081 98 0 1 49 49
443	2922260 1502 10190 614937 12.151893649716 497.713018516081 49 40 40 1960 78400
444	2923762 1453 10190 614937 12.151893649716 497.713018516081 49 0 0 0 0
445	2925215 1502 10190 614937 12.151893649716 497.713018516081 49 56 56 2744 153664
446	2926717 1435 10354 601356 12.206326515879 487.951006749645 47 40 40 1880 75200
447	2928152 1435 10354 601356 12.206326515879 487.951006749645 47 40 40 1880 75200
448	2929587 2776 10354 601356 12.206326515879 487.951006749645 94 0 1 47 47
449	2932363 1435 10354 601356 12.206326515879 487.951006749645 47 40 40 1880 75200
450	2933798 1388 10354 601356 12.206326515879 487.951006749645 47 0 0 0 0
451	2935186 1435 10354 601356 12.206326515879 487.951006749645 47 56 56 2632 147392
452	2936621 1531 10732 610212 12.781567568891 493.958404820994 50 40 1068 3028 1219024
453	2938152 1531 10732 610212 12.781567568891 493.958404820994 50 40 1068 3028 1219024
454	2939683 2958 10732 610212 12.781567568891 493.958404820994 100 0 1 50 50
455	2942641 1531 10732 610212 12.781567568891 493.958404820994 50 40 1068 3028 1219024
456	2944172 1479 10732 610212 12.781567568891 493.958404820994 50 0 0 0 0
457	2945651 1531 10732 610212 12.781567568891 493.958404820994 50 56 1084 3828 1328720
458	2947182 1490 10919 618402 12.805291756522 499.952452569269 49 40 40 1960 78400
459	2948672 1490 10919 618402 12.805291756522 499.952452569269 49 40 40 1960 78400
460	2950162 2882 10919 618402 12.805291756522 499.952452569269 98 0 1 49 49
461	2953044 1490 10919 618402 12.805291756522 499.952452569269 49 40 40 1960 78400
462	2954534 1441 10919 618402 12.805291756522 499.952452569269 49 0 0 0 0
463	2955975 1490 10919 618402 12.805291756522 499.952452569269 49 56 56 2744 153664
464	2957465 10383 10972 617663 12.805314694294 499.575812708843 338 56 1084 33320 17466848
465	2967848 9922 10972 617663 12.805314694294 499.575812708843 324 40 40 12960 518400
466	2977770 1562 11079 616038 12.917250334285 498.745021547656 51 40 40 2040 81600
467	2979332 1562 11079 616038 12.917250334285 498.745021547656 51 40 40 2040 81600
468	2980894 3022 11079 616038 12.917250334285 498.745021547656 102 0 1 51 51
469	2983916 1562 11079 616038 12.917250334285 498.745021547656 51 40 40 2040 81600
470	2985478 1511 11079 616038 12.917250334285 498.745021547656 51 0 0 0 0
471	2986989 1562 11079 616038 12.917250334285 498.745021547656 51 56 56 2856 159936
472	2988551 1558 11210 611650 12.991585638374 494.982431672981 51 40 40 2040 81600
473	2990109 1558 11210 611650 12.991585638374 494.982431672981 51 40 40 2040 81600
474	2991667 3014 11210 611650 12.991585638374 494.982431672981 102 0 1 51 51
475	2994681 1558 11210 611650 12.991585638374 494.982431672981 51 40 40 2040 81600
476	2996239 1507 11210 611650 12.991585638374 494.982431672981 51 0 0 0 0
477	2997746 1558 11210 611650 12.991585638374 494.982431672981 51 56 56 2856 159936
478	2999304 11917 11263 617369 12.99160852686 499.463967719431 384 56 1084 99632 90270144
479	3011221 9450 11263 617369 12.99160852686 499.463967719431 309 40 1068 13388 1633424
480	3020671 1496 11367 617316 13.009107524995 499.463944465387 49 40 40 1960 78400
481	3022167 1496 11367 617316 13.009107524995 499.463944465387 49 40 40 1960 78400
482	3023663 2894 11367 617316 13.009107524995 499.463944465387 98 0 1 49 49
483	3026557 1496 11367 617316 13.009107524995 499.463944465387 49 40 40 1960 78400
484	3028053 1447 11367 617316 13.009107524995 499.463944465387 49 0 0 0 0
485	3029500 1496 11367 617316 13.009107524995 499.463944465387 49 56 56 2744 153664
486	3030996 1471 11551 613915 13.121687264647 497.123988377862 48 40 40 1920 76800
487	3032467 1471 11551 613915 13.121687264647 497.123988377862 48 40 40 1920 76800
488	3033938 2846 11551 613915 13.121687264647 497.123988377862 96 0 1 48 48
489	3036784 1471 11551 613915 13.121687264647 497.123988377862 48 40 40 1920 76800
490	3038255 1423 11551 613915 13.121687264647 497.123988377862 48 0 0 0 0
491	3039678 1471 11551 613915 13.121687264647 497.123988377862 48 56 56 2688 150528
492	3041149 1505 11767 618052 13.326198428404 499.764562663619 49 40 1068 2988 1217424
493	3042654 1505 11767 618052 13.326198428404 499.764562663619 49 40 1068 2988 1217424
494	3044159 2908 11767 618052 13.326198428404 499.764562663619 98 0 1 49 49
495	3047067 1505 11767 618052 13.326198428404 499.764562663619 49 40 1068 2988 1217424
496	3048572 1454 11767 618052 13.326198428404 499.764562663619 49 0 0 0 0
497	3050026 1505 11767 618052 13.326198428404 499.764562663619 49 56 1084 3772 1325584
498	3051531 1647 11901 605914 13.360787688289 491.407864706125 54 40 40 2160 86400
499	3053178 1647 11901 605914 13.360787688289 491.407864706125 54 40 40 2160 86400
500	3054825 3186 11901 605914 13.360787688289 491.407864706125 108 0 1 54 54
501	3058011 1647 11901 605914 13.360787688289 491.407864706125 54 40 40 2160 86400
502	3059658 1593 11901 605914 13.360787688289 491.407864706125 54 0 0 0 0
503	3061251 1647 11901 605914 13.360787688289 491.407864706125 54 56 56 3024 169344
504	3062898 1557 12076 617942 13.442657440901 499.740866848736 51 40 40 2040 81600
505	3064455 1557 12076 617942 13.442657440901 499.740866848736 51 40 40 2040 81600
506	3066012 3012 12076 617942 13.442657440901 499.740866848736 102 0 1 51 51
507	3069024 1557 12076 617942 13.442657440901 499.740866848736 51 40 40 2040 81600
508	3070581 1506 12076 617942 13.442657440901 499.740866848736 51 0 0 0 0
509	3072087 1557 12076 617942 13.442657440901 499.740866848736 51 56 56 2856 159936
510	3073644 1498 12204 610533 13.472517372575 494.2376663303 49 40 40 1960 78400
511	3075142 1498 12204 610533 13.472517372575 494.2376663303 49 40 40 1960 78400
512	3076640 2898 12204 610533 13.472517372575 494.2376663303 98 0 1 49 49
513	3079538 1498 12204 610533 13.472517372575 494.2376663303 49 40 40 1960 78400
514	3081036 1449 12204 610533 13.472517372575 494.2376663303 49 0 0 0 0
515	3082485 1498 12204 610533 13.472517372575 494.2376663303 49 56 56 2744 153664
516	3083983 1587 12367 613689 13.579456198495 496.912087679374 52 40 40 2080 83200
517	3085570 1587 12367 613689 13.579456198495 496.912087679374 52 40 40 2080 83200
518	3087157 3070 12367 613689 13.579456198495 496.912087679374 104 0 1 52 52
519	3090227 1587 12367 613689 13.579456198495 496.912087679374 52 40 40 2080 83200
520	3091814 1535 12367 613689 13.579456198495 496.912087679374 52 0 0 0 0
521	3093349 1587 12367 613689 13.579456198495 496.912087679374 52 56 56 2912 163072
522	3094936 1522 12592 615757 13.700121452566 498.47320714034 50 40 40 2000 80000
523	3096458 1522 12592 615757 13.700121452566 498.47320714034 50 40 40 2000 80000
524	3097980 2944 12592 615757 13.700121452566 498.47320714034 100 0 1 50 50
525	3100924 1522 12592 615757 13.700121452566 498.47320714034 50 40 40 2000 80000
526	3102446 1472 12592 615757 13.700121452566 498.47320714034 50 0 0 0 0
527	3103918 1522 12592 615757 13.700121452566 498.47320714034 50 56 56 2800 156800
528	3105440 10669 12657 618113 13.700144944266 499.764586045044 345 56 1084 71748 60849840
529	3116109 8992 12657 618113 13.700144944266 499.764586045044 294 40 40 11760 470400
530	3125101 1555 12716 617598 13.700872510672 499.57578930771 51 40 1068 3068 1220624
531	3126656 1555 12716 617598 13.700872510672 499.57578930771 51 40 1068 3068 1220624
532	3128211 3004 12716 617598 13.700872510672 499.57578930771 102 0 1 51 51
533	3131215 1555 12716 617598 13.700872510672 499.57578930771 51 40 1068 3068 1220624
534	3132770 1502 12716 617598 13.700872510672 499.57578930771 51 0 0 0 0
535	3134272 1555 12716 617598 13.700872510672 499.57578930771 51 56 1084 3884 1331856
536	3135827 1676 12952 494760 13.878280624473 401.483873987384 52 1084 1084 56368 61102912
537	3137503 5749 12967 369636 13.878281215874 300.150982957373 179 1084 1084 194036 210335024
538	3143252 1659 13065 617476 13.917730017565 499.53291181242 54 40 1068 6272 4642496
539	3144911 1659 13065 617476 13.917730017565 499.53291181242 54 40 1068 6272 4642496
540	3146570 3194 13065 617476 13.917730017565 499.53291181242 108 0 1 54 54
541	3149764 1659 13065 617476 13.917730017565 499.53291181242 54 40 1068 6272 4642496
542	3151423 1597 13065 617476 13.917730017565 499.53291181242 54 0 0 0 0
543	3153020 1659 13065 617476 13.917730017565 499.53291181242 54 56 1084 7136 4857024
544	3154679 1465 13447 618224 14.255966332275 499.887562056536 48 40 40 1920 76800
545	3156144 1465 13447 618224 14.255966332275 499.887562056536 48 40 40 1920 76800
546	3157609 2834 13447 618224 14.255966332275 499.887562056536 96 0 1 48 48
547	3160443 1465 13447 618224 14.255966332275 499.887562056536 48 40 40 1920 76800
548	3161908 1417 13447 618224 14.255966332275 499.887562056536 48 0 0 0 0
549	3163325 1465 13447 618224 14.255966332275 499.887562056536 48 56 56 2688 150528
550	3164790 1622 13821 617776 14.571551543195 499.605033900588 53 40 40 2120 84800
551	3166412 1622 13821 617776 14.571551543195 499.605033900588 53 40 40 2120 84800
552	3168034 3138 13821 617776 14.571551543195 499.605033900588 106 0 1 53 53
553	3171172 1622 13821 617776 14.571551543195 499.605033900588 53 40 40 2120 84800
554	3172794 1569 13821 617776 14.571551543195 499.605033900588 53 0 0 0 0
555	3174363 1622 13821 617776 14.571551543195 499.605033900588 53 56 56 2968 166208
556	3175985 1557 14008 613033 14.636627640575 496.529003279284 51 40 40 2040 81600
557	3177542 1557 14008 613033 14.636627640575 496.529003279284 51 40 40 2040 81600
558	3179099 3012 14008 613033 14.636627640575 496.529003279284 102 0 1 51 51
559	3182111 1557 14008 613033 14.636627640575 496.529003279284 51 40 40 2040 81600
560	3183668 1506 14008 613033 14.636627640575 496.529003279284 51 0 0 0 0
561	3185174 1557 14008 613033 14.636627640575 496.529003279284 51 56 56 2856 159936
562	3186731 1496 14177 611213 14.786183428951 494.823144974653 49 40 40 1960 78400
563	3188227 1496 14177 611213 14.786183428951 494.823144974653 49 40 40 1960 78400
564	3189723 2894 14177 611213 14.786183428951 494.823144974653 98 0 1 49 49
565	3192617 1496 14177 611213 14.786183428951 494.823144974653 49 40 40 1960 78400
566	3194113 1447 14177 611213 14.786183428951 494.823144974653 49 0 0 0 0
567	3195560 1496 14177 611213 14.786183428951 494.823144974653 49 56 56 2744 153664
568	3197056 803 19520 544909 19.793962932545 442.494896494415 25 1084 1084 27100 29376400
569	3197859 3281 21075 293104 20.880597835811 239.110315244428 103 1084 1084 111652 121030768
570	3201140 2159 21189 268175 20.880963749802 218.981706190482 66 1008 1008 66528 67060224
571	3203299 2018 21189 268175 20.880963749802 218.981706190482 66 1 66 2211 98021
572	3205317 2159 21190 268176 20.880963749802 218.981706190482 66 1000 1000 66000 66000000
573	3207476 92783 21190 618568 0.1 500 5000 0 160000 5280000 460800000000
574	3300259 2810 21190 268176 20.880963749802 218.981706190482 66 0.000365618336 0.001097747016 0.025245973583 1.0308753661726e-05
575	3303069 2078 21190 268176 20.880963749802 218.981706190482 66 5 214 9247 1473237
576	3305147 5940 32256 610318 29.740256229111 493.958770683115 183 1084 1084 198372 215035248
577	3311087 9494 35718 618297 32.215648053682 499.88758554847 308 56 1084 40892 27920048
578	3320581 8739 35718 618297 32.215648053682 499.88758554847 285 40 40 11400 456000
579	3329320 2155 71811 617213 61.215060008508 499.335259752294 67 1084 1084 72628 78728752
580	3331475 132 129414 130586 108.267731881986 109.405786287241 4 1084 1084 4336 4700224
581	3331607 2342 138754 590426 115.863985839723 479.131164678385 71 1084 1084 76964 83428976
582	3333949 4312 154109 524352 127.337714128734 424.746574550112 131 1084 1084 142004 153932336
583	3338261 1382 158453 494752 130.650686167115 401.483873600305 42 1084 1084 45528 49352352
584	3339643 2437 164108 524356 135.274051507829 424.746574576722 74 1084 1084 80216 86954144
585	3342080 461 169920 494762 140.620323490511 401.483874005827 14 1084 1084 15176 16450784
586	3342541 2036 170314 413753 140.94166393778 335.884210718272 62 1084 1084 67208 72853472
587	3344577 857 190523 494756 156.646592643059 401.483873859971 26 1084 1084 28184 30551456
588	3345434 460 191823 494764 157.261886402838 401.48387403263 14 1084 1084 15176 16450784
589	3345894 2467 199513 614562 163.931112649935 497.363102294213 75 1084 1084 81300 88129200
590	3348361 1317 199515 561488 163.931112685938 456.253949219694 40 1084 1084 43360 47002240
591	3349678 527 200480 610322 164.842258527285 493.958770867104 16 1084 1084 17344 18800896
592	3350205 955 214481 519407 175.871457627988 420.514076664455 29 1084 1084 31436 34076624
593	3351160 625 261324 283172 213.296004667991 230.895167649212 19 1084 1084 20596 22326064
594	3351785 3362 279768 617215 228.995858108337 499.33525976213 102 1084 1084 110568 119855712
595	3355147 1184 293102 612885 239.110315237617 496.35851821994 36 1084 1084 39024 42302016
596	3356331 1677 297911 358705 242.466188817898 291.942736353665 51 1084 1084 55284 59927856
597	3358008 5728 305562 617209 248.983505843324 499.335259613427 174 1084 1084 188616 204459744
598	3363736 3292 311687 469271 254.233589513246 381.756212573489 100 1084 1084 108400 117505600
599	3367028 1973 363221 498566 295.895815358026 404.284424312796 60 1084 1084 65040 70503360
600	3369001 755 391867 492752 318.501942874078 399.902510350424 23 1084 1084 24932 27026288
601	3369756 428 397175 413749 323.011753237715 335.884210645773 13 1084 1084 14092 15275728
602	3370184 1345 413751 494766 335.884210706655 401.483874054259 41 1084 1084 44444 48177296
603	3371529 856 415031 610326 337.153544019548 493.958770947598 26 1084 1084 28184 30551456
604	3372385 1051 476923 561490 387.515137255072 456.253949221477 32 1084 1084 34688 37601792
605	3373436 231 492732 604730 399.902509939211 490.455728834738 7 1084 1084 7588 8225392
606	3373667 2858 524358 617211 424.746574615138 499.335259716855 87 1084 1084 94308 102229872
607	3376525 92902 618568 618568 0.1 500 5000 0 0 0 0

