version 2
run Fanet-0-20220609-18:29:44-21604
attr configname Fanet
attr datetime 20220609-18:29:44
attr experiment Fanet
attr inifile omnetpp.ini
attr iterationvars ""
attr iterationvarsf ""
attr measurement ""
attr network Fanet
attr processid 21604
attr repetition 0
attr replication #0
attr resultdir results
attr runnumber 0
attr seedset 0
param *.host[0].numApps 1
param *.host[0].app[0].typename "\"UdpBasicApp\""
param *.host[0].app[0].startTime 11s
param *.host[0].app[0].destAddresses "\"host[1]\""
param *.host[0].app[0].destPort 5000
param *.host[0].app[0].messageLength 1000B
param *.host[0].app[0].sendInterval exponential(1s)
param *.host[0].app[0].packetName "\"UDPdata\""
param *.host[1].numApps 1
param *.host[1].app[0].typename "\"UdpSink\""
param *.host[1].app[0].localPort 5000
param **.wlan[*].bitrate 24Mbps
param *.configurator.addStaticRoutes false
param **.netmaskRoutes "\"\""
param **.arp.typename "\"GlobalArp\""
param *.host*.wlan[0].typename "\"AckingWirelessInterface\""
param *.host*.wlan[0].radio.transmitter.communicationRange 2000m
param *.host*.wlan[0].radio.displayCommunicationRange true
param *.visualizer.osgVisualizer.typename "\"IntegratedOsgVisualizer\""
param *.visualizer.osgVisualizer.sceneVisualizer.clearColor "\"skyblue\""
param *.visualizer.osgVisualizer.sceneVisualizer.sceneImage "\"showcases/desert\""
param *.visualizer.osgVisualizer.sceneVisualizer.sceneImageSize 5000m
param *.visualizer.osgVisualizer.sceneVisualizer.axisLength 1000m
param *.visualizer.osgVisualizer.sceneVisualizer.sceneMinX -2000m
param *.visualizer.osgVisualizer.sceneVisualizer.sceneMinY -2000m
param *.visualizer.osgVisualizer.sceneVisualizer.sceneMinZ 0m
param *.visualizer.osgVisualizer.sceneVisualizer.sceneMaxX 3000m
param *.visualizer.osgVisualizer.sceneVisualizer.sceneMaxY 3000m
param *.visualizer.osgVisualizer.sceneVisualizer.sceneMaxZ 1000m
param *.visualizer.osgVisualizer.networkNodeVisualizer.displayModuleName false
param *.visualizer.*.mobilityVisualizer.displayMobility true
param *.visualizer.*.mobilityVisualizer.displayPositions true
param *.visualizer.*.mobilityVisualizer.displayOrientations true
param *.visualizer.*.mobilityVisualizer.displayVelocities true
param *.visualizer.*.mobilityVisualizer.displayMovementTrails true
param *.visualizer.*.mobilityVisualizer.animationSpeed 1
param *.visualizer.*.packetDropVisualizer.displayPacketDrops false
param *.visualizer.*.packetDropVisualizer.labelFormat "\"%n/reason: %r\""
param *.visualizer.*.packetDropVisualizer.fadeOutTime 10s
param **.constraintAreaMinX 0m
param **.constraintAreaMinY 0m
param **.constraintAreaMinZ 40m
param **.constraintAreaMaxX 2500m
param **.constraintAreaMaxY 2000m
param **.constraintAreaMaxZ 200m
param *.visualizer.*.mediumVisualizer.signalPropagationAnimationSpeed 500/3e8
param *.visualizer.*.mediumVisualizer.signalTransmissionAnimationSpeed 50000/3e8
param *.visualizer.*.mediumVisualizer.displaySignals false
param *.visualizer.*.mediumVisualizer.displayTransmissions false
param *.visualizer.*.mediumVisualizer.displayReceptions false
param *.visualizer.*.mediumVisualizer.transmissionPlacementPriority 10
param *.visualizer.*.mediumVisualizer.receptionPlacementPriority 10
param *.visualizer.*.mediumVisualizer.displaySignals false
param *.visualizer.*.mediumVisualizer.signalFadingDistance 50m
param *.visualizer.*.mediumVisualizer.signalRingSize 50m
param *.visualizer.osgVisualizer.mediumVisualizer.signalShape "\"both\""
param *.host[*].osgModel "\"3d/drone.ive.100.scale.0,0,90.rot\""
param *.attacker*.wlan[0].typename "\"AckingWirelessInterface\""
param *.attacker*.wlan[0].radio.transmitter.communicationRange 400m
param *.attacker*.wlan[0].radio.displayCommunicationRange true
param *.host[*].mobility.typename "\"LinearMobility\""
param *.attacker[*].mobility.typename "\"LinearMobility\""
param **.mobility.speed 40mps

vector 0 Fanet.host[0].wlan[0].radio radioMode:vector ETV
attr interpolationmode sample-hold
attr source radioModeChanged
attr title "Radio mode, vector"
vector 1 Fanet.host[1].wlan[0].radio radioMode:vector ETV
attr interpolationmode sample-hold
attr source radioModeChanged
attr title "Radio mode, vector"
vector 2 Fanet.host[2].wlan[0].radio radioMode:vector ETV
attr interpolationmode sample-hold
attr source radioModeChanged
attr title "Radio mode, vector"
vector 3 Fanet.host[3].wlan[0].radio radioMode:vector ETV
attr interpolationmode sample-hold
attr source radioModeChanged
attr title "Radio mode, vector"
vector 4 Fanet.host[4].wlan[0].radio radioMode:vector ETV
attr interpolationmode sample-hold
attr source radioModeChanged
attr title "Radio mode, vector"
vector 5 Fanet.host[5].wlan[0].radio radioMode:vector ETV
attr interpolationmode sample-hold
attr source radioModeChanged
attr title "Radio mode, vector"
vector 6 Fanet.host[6].wlan[0].radio radioMode:vector ETV
attr interpolationmode sample-hold
attr source radioModeChanged
attr title "Radio mode, vector"
vector 7 Fanet.host[7].wlan[0].radio radioMode:vector ETV
attr interpolationmode sample-hold
attr source radioModeChanged
attr title "Radio mode, vector"
vector 8 Fanet.host[8].wlan[0].radio radioMode:vector ETV
attr interpolationmode sample-hold
attr source radioModeChanged
attr title "Radio mode, vector"
vector 9 Fanet.host[9].wlan[0].radio radioMode:vector ETV
attr interpolationmode sample-hold
attr source radioModeChanged
attr title "Radio mode, vector"
vector 10 Fanet.host[0].wlan[0].radio receptionState:vector ETV
attr interpolationmode sample-hold
attr source receptionStateChanged
attr title "Radio reception state, vector"
vector 11 Fanet.host[0].wlan[0].radio transmissionState:vector ETV
attr interpolationmode sample-hold
attr source transmissionStateChanged
attr title "Radio transmission state, vector"
vector 12 Fanet.host[1].wlan[0].radio receptionState:vector ETV
attr interpolationmode sample-hold
attr source receptionStateChanged
attr title "Radio reception state, vector"
vector 13 Fanet.host[1].wlan[0].radio transmissionState:vector ETV
attr interpolationmode sample-hold
attr source transmissionStateChanged
attr title "Radio transmission state, vector"
vector 14 Fanet.host[2].wlan[0].radio receptionState:vector ETV
attr interpolationmode sample-hold
attr source receptionStateChanged
attr title "Radio reception state, vector"
vector 15 Fanet.host[2].wlan[0].radio transmissionState:vector ETV
attr interpolationmode sample-hold
attr source transmissionStateChanged
attr title "Radio transmission state, vector"
vector 16 Fanet.host[3].wlan[0].radio receptionState:vector ETV
attr interpolationmode sample-hold
attr source receptionStateChanged
attr title "Radio reception state, vector"
vector 17 Fanet.host[3].wlan[0].radio transmissionState:vector ETV
attr interpolationmode sample-hold
attr source transmissionStateChanged
attr title "Radio transmission state, vector"
vector 18 Fanet.host[4].wlan[0].radio receptionState:vector ETV
attr interpolationmode sample-hold
attr source receptionStateChanged
attr title "Radio reception state, vector"
vector 19 Fanet.host[4].wlan[0].radio transmissionState:vector ETV
attr interpolationmode sample-hold
attr source transmissionStateChanged
attr title "Radio transmission state, vector"
vector 20 Fanet.host[5].wlan[0].radio receptionState:vector ETV
attr interpolationmode sample-hold
attr source receptionStateChanged
attr title "Radio reception state, vector"
vector 21 Fanet.host[5].wlan[0].radio transmissionState:vector ETV
attr interpolationmode sample-hold
attr source transmissionStateChanged
attr title "Radio transmission state, vector"
vector 22 Fanet.host[6].wlan[0].radio receptionState:vector ETV
attr interpolationmode sample-hold
attr source receptionStateChanged
attr title "Radio reception state, vector"
vector 23 Fanet.host[6].wlan[0].radio transmissionState:vector ETV
attr interpolationmode sample-hold
attr source transmissionStateChanged
attr title "Radio transmission state, vector"
vector 24 Fanet.host[7].wlan[0].radio receptionState:vector ETV
attr interpolationmode sample-hold
attr source receptionStateChanged
attr title "Radio reception state, vector"
vector 25 Fanet.host[7].wlan[0].radio transmissionState:vector ETV
attr interpolationmode sample-hold
attr source transmissionStateChanged
attr title "Radio transmission state, vector"
vector 26 Fanet.host[8].wlan[0].radio receptionState:vector ETV
attr interpolationmode sample-hold
attr source receptionStateChanged
attr title "Radio reception state, vector"
vector 27 Fanet.host[8].wlan[0].radio transmissionState:vector ETV
attr interpolationmode sample-hold
attr source transmissionStateChanged
attr title "Radio transmission state, vector"
vector 28 Fanet.host[9].wlan[0].radio receptionState:vector ETV
attr interpolationmode sample-hold
attr source receptionStateChanged
attr title "Radio reception state, vector"
vector 29 Fanet.host[9].wlan[0].radio transmissionState:vector ETV
attr interpolationmode sample-hold
attr source transmissionStateChanged
attr title "Radio transmission state, vector"
vector 30 Fanet.host[8].wlan[0].mac rcvdPkFromHl:vector(packetBytes) ETV
attr interpolationmode none
attr source packetReceivedFromUpper
attr title "packets received from higher layer, vector(packetBytes)"
vector 31 Fanet.host[8].wlan[0].mac.queue packetPushed:vector(packetBytes) ETV
attr interpolationmode none
attr title "packet pushed, vector(packetBytes)"
vector 32 Fanet.host[8].wlan[0].mac.queue queueLength:vector ETV
attr interpolationmode sample-hold
attr source "count(packetPushed) - count(packetPopped) - count(packetRemoved) - count(packetDropped)"
attr title "queue length, vector"
vector 33 Fanet.host[8].wlan[0].mac.queue packetPopped:vector(packetBytes) ETV
attr interpolationmode none
attr title "packet popped, vector(packetBytes)"
vector 34 Fanet.host[8].wlan[0].mac.queue queueingTime:vector ETV
attr interpolationmode none
attr source queueingTime(packetPopped)
attr title "queueing times, vector"
attr unit s
vector 35 Fanet.host[8].wlan[0].mac sentDownPk:vector(packetBytes) ETV
attr interpolationmode none
attr source packetSentToLower
attr title "packets sent to lower layer, vector(packetBytes)"
vector 36 Fanet.host[0].wlan[0].mac rcvdPkFromLl:vector(packetBytes) ETV
attr interpolationmode none
attr source packetReceivedFromLower
attr title "packets received from lower layer, vector(packetBytes)"
vector 37 Fanet.host[0].wlan[0].mac passedUpPk:vector(packetBytes) ETV
attr interpolationmode none
attr source packetSentToUpper
attr title "packets passed to higher layer, vector(packetBytes)"
vector 38 Fanet.host[7].wlan[0].mac rcvdPkFromLl:vector(packetBytes) ETV
attr interpolationmode none
attr source packetReceivedFromLower
attr title "packets received from lower layer, vector(packetBytes)"
vector 39 Fanet.host[7].wlan[0].mac passedUpPk:vector(packetBytes) ETV
attr interpolationmode none
attr source packetSentToUpper
attr title "packets passed to higher layer, vector(packetBytes)"
vector 40 Fanet.host[1].wlan[0].mac rcvdPkFromLl:vector(packetBytes) ETV
attr interpolationmode none
attr source packetReceivedFromLower
attr title "packets received from lower layer, vector(packetBytes)"
vector 41 Fanet.host[1].wlan[0].mac passedUpPk:vector(packetBytes) ETV
attr interpolationmode none
attr source packetSentToUpper
attr title "packets passed to higher layer, vector(packetBytes)"
vector 42 Fanet.host[3].wlan[0].mac rcvdPkFromLl:vector(packetBytes) ETV
attr interpolationmode none
attr source packetReceivedFromLower
attr title "packets received from lower layer, vector(packetBytes)"
vector 43 Fanet.host[3].wlan[0].mac passedUpPk:vector(packetBytes) ETV
attr interpolationmode none
attr source packetSentToUpper
attr title "packets passed to higher layer, vector(packetBytes)"
vector 44 Fanet.host[2].wlan[0].mac rcvdPkFromLl:vector(packetBytes) ETV
attr interpolationmode none
attr source packetReceivedFromLower
attr title "packets received from lower layer, vector(packetBytes)"
vector 45 Fanet.host[2].wlan[0].mac passedUpPk:vector(packetBytes) ETV
attr interpolationmode none
attr source packetSentToUpper
attr title "packets passed to higher layer, vector(packetBytes)"
vector 46 Fanet.host[6].wlan[0].mac rcvdPkFromLl:vector(packetBytes) ETV
attr interpolationmode none
attr source packetReceivedFromLower
attr title "packets received from lower layer, vector(packetBytes)"
vector 47 Fanet.host[6].wlan[0].mac passedUpPk:vector(packetBytes) ETV
attr interpolationmode none
attr source packetSentToUpper
attr title "packets passed to higher layer, vector(packetBytes)"
vector 48 Fanet.host[9].wlan[0].mac rcvdPkFromLl:vector(packetBytes) ETV
attr interpolationmode none
attr source packetReceivedFromLower
attr title "packets received from lower layer, vector(packetBytes)"
vector 49 Fanet.host[9].wlan[0].mac passedUpPk:vector(packetBytes) ETV
attr interpolationmode none
attr source packetSentToUpper
attr title "packets passed to higher layer, vector(packetBytes)"
vector 50 Fanet.host[4].wlan[0].mac rcvdPkFromLl:vector(packetBytes) ETV
attr interpolationmode none
attr source packetReceivedFromLower
attr title "packets received from lower layer, vector(packetBytes)"
vector 51 Fanet.host[4].wlan[0].mac passedUpPk:vector(packetBytes) ETV
attr interpolationmode none
attr source packetSentToUpper
attr title "packets passed to higher layer, vector(packetBytes)"
vector 52 Fanet.host[5].wlan[0].mac rcvdPkFromLl:vector(packetBytes) ETV
attr interpolationmode none
attr source packetReceivedFromLower
attr title "packets received from lower layer, vector(packetBytes)"
vector 53 Fanet.host[5].wlan[0].mac passedUpPk:vector(packetBytes) ETV
attr interpolationmode none
attr source packetSentToUpper
attr title "packets passed to higher layer, vector(packetBytes)"
vector 54 Fanet.host[6].wlan[0].mac rcvdPkFromHl:vector(packetBytes) ETV
attr interpolationmode none
attr source packetReceivedFromUpper
attr title "packets received from higher layer, vector(packetBytes)"
vector 55 Fanet.host[6].wlan[0].mac.queue packetPushed:vector(packetBytes) ETV
attr interpolationmode none
attr title "packet pushed, vector(packetBytes)"
vector 56 Fanet.host[6].wlan[0].mac.queue queueLength:vector ETV
attr interpolationmode sample-hold
attr source "count(packetPushed) - count(packetPopped) - count(packetRemoved) - count(packetDropped)"
attr title "queue length, vector"
vector 57 Fanet.host[6].wlan[0].mac.queue packetPopped:vector(packetBytes) ETV
attr interpolationmode none
attr title "packet popped, vector(packetBytes)"
vector 58 Fanet.host[6].wlan[0].mac.queue queueingTime:vector ETV
attr interpolationmode none
attr source queueingTime(packetPopped)
attr title "queueing times, vector"
attr unit s
vector 59 Fanet.host[6].wlan[0].mac sentDownPk:vector(packetBytes) ETV
attr interpolationmode none
attr source packetSentToLower
attr title "packets sent to lower layer, vector(packetBytes)"
vector 60 Fanet.host[8].wlan[0].mac rcvdPkFromLl:vector(packetBytes) ETV
attr interpolationmode none
attr source packetReceivedFromLower
attr title "packets received from lower layer, vector(packetBytes)"
vector 61 Fanet.host[8].wlan[0].mac passedUpPk:vector(packetBytes) ETV
attr interpolationmode none
attr source packetSentToUpper
attr title "packets passed to higher layer, vector(packetBytes)"
vector 62 Fanet.host[0].wlan[0].mac rcvdPkFromHl:vector(packetBytes) ETV
attr interpolationmode none
attr source packetReceivedFromUpper
attr title "packets received from higher layer, vector(packetBytes)"
vector 63 Fanet.host[0].wlan[0].mac.queue packetPushed:vector(packetBytes) ETV
attr interpolationmode none
attr title "packet pushed, vector(packetBytes)"
vector 64 Fanet.host[0].wlan[0].mac.queue queueLength:vector ETV
attr interpolationmode sample-hold
attr source "count(packetPushed) - count(packetPopped) - count(packetRemoved) - count(packetDropped)"
attr title "queue length, vector"
vector 65 Fanet.host[0].wlan[0].mac.queue packetPopped:vector(packetBytes) ETV
attr interpolationmode none
attr title "packet popped, vector(packetBytes)"
vector 66 Fanet.host[0].wlan[0].mac.queue queueingTime:vector ETV
attr interpolationmode none
attr source queueingTime(packetPopped)
attr title "queueing times, vector"
attr unit s
vector 67 Fanet.host[0].wlan[0].mac sentDownPk:vector(packetBytes) ETV
attr interpolationmode none
attr source packetSentToLower
attr title "packets sent to lower layer, vector(packetBytes)"
vector 68 Fanet.host[1].wlan[0].mac rcvdPkFromHl:vector(packetBytes) ETV
attr interpolationmode none
attr source packetReceivedFromUpper
attr title "packets received from higher layer, vector(packetBytes)"
vector 69 Fanet.host[1].wlan[0].mac.queue packetPushed:vector(packetBytes) ETV
attr interpolationmode none
attr title "packet pushed, vector(packetBytes)"
vector 70 Fanet.host[1].wlan[0].mac.queue queueLength:vector ETV
attr interpolationmode sample-hold
attr source "count(packetPushed) - count(packetPopped) - count(packetRemoved) - count(packetDropped)"
attr title "queue length, vector"
vector 71 Fanet.host[1].wlan[0].mac.queue packetPopped:vector(packetBytes) ETV
attr interpolationmode none
attr title "packet popped, vector(packetBytes)"
vector 72 Fanet.host[1].wlan[0].mac.queue queueingTime:vector ETV
attr interpolationmode none
attr source queueingTime(packetPopped)
attr title "queueing times, vector"
attr unit s
vector 73 Fanet.host[1].wlan[0].mac sentDownPk:vector(packetBytes) ETV
attr interpolationmode none
attr source packetSentToLower
attr title "packets sent to lower layer, vector(packetBytes)"
vector 74 Fanet.host[0].app[0] packetSent:vector(packetBytes) ETV
attr interpolationmode none
attr source packetSent
attr title "packets sent, vector(packetBytes)"
vector 75 Fanet.host[0].udp packetSent:vector(packetBytes) ETV
attr interpolationmode none
attr source packetSent
attr title "packets sent, vector(packetBytes)"
vector 76 Fanet.host[3].wlan[0].mac packetDropNotAddressedToUs:vector(packetBytes) ETV
attr interpolationmode none
attr source packetDropReasonIsNotAddressedToUs(packetDropped)
attr title "packet drop: not addressed to us, vector(packetBytes)"
vector 77 Fanet.host[8].wlan[0].mac packetDropNotAddressedToUs:vector(packetBytes) ETV
attr interpolationmode none
attr source packetDropReasonIsNotAddressedToUs(packetDropped)
attr title "packet drop: not addressed to us, vector(packetBytes)"
vector 78 Fanet.host[6].wlan[0].mac packetDropNotAddressedToUs:vector(packetBytes) ETV
attr interpolationmode none
attr source packetDropReasonIsNotAddressedToUs(packetDropped)
attr title "packet drop: not addressed to us, vector(packetBytes)"
vector 79 Fanet.host[1].udp packetReceived:vector(packetBytes) ETV
attr interpolationmode none
attr source packetReceived
attr title "packets received, vector(packetBytes)"
vector 80 Fanet.host[1].udp passedUpPk:vector(count) ETV
attr interpolationmode none
attr source packetSentToUpper
attr title "packets passed up, vector(count)"
vector 81 Fanet.host[1].app[0] packetReceived:vector(packetBytes) ETV
attr interpolationmode none
attr source packetReceived
attr title "packets received, vector(packetBytes)"
vector 82 Fanet.host[1].app[0] throughput:vector ETV
attr source throughput(packetReceived)
attr title "throughput, vector"
attr unit bps
vector 83 Fanet.host[1].app[0] endToEndDelay:vector ETV
attr interpolationmode none
attr source dataAge(packetReceived)
attr title "end-to-end delay, vector"
attr unit s
vector 84 Fanet.host[1].app[0] rcvdPkSeqNo:vector ETV
attr interpolationmode none
attr source appPkSeqNo(packetReceived)
attr title "received packet sequence number, vector"
vector 85 Fanet.host[7].wlan[0].mac packetDropNotAddressedToUs:vector(packetBytes) ETV
attr interpolationmode none
attr source packetDropReasonIsNotAddressedToUs(packetDropped)
attr title "packet drop: not addressed to us, vector(packetBytes)"
vector 86 Fanet.host[2].wlan[0].mac packetDropNotAddressedToUs:vector(packetBytes) ETV
attr interpolationmode none
attr source packetDropReasonIsNotAddressedToUs(packetDropped)
attr title "packet drop: not addressed to us, vector(packetBytes)"
vector 87 Fanet.host[9].wlan[0].mac packetDropNotAddressedToUs:vector(packetBytes) ETV
attr interpolationmode none
attr source packetDropReasonIsNotAddressedToUs(packetDropped)
attr title "packet drop: not addressed to us, vector(packetBytes)"
vector 88 Fanet.host[4].wlan[0].mac packetDropNotAddressedToUs:vector(packetBytes) ETV
attr interpolationmode none
attr source packetDropReasonIsNotAddressedToUs(packetDropped)
attr title "packet drop: not addressed to us, vector(packetBytes)"
vector 89 Fanet.host[4].wlan[0].mac rcvdPkFromHl:vector(packetBytes) ETV
attr interpolationmode none
attr source packetReceivedFromUpper
attr title "packets received from higher layer, vector(packetBytes)"
vector 90 Fanet.host[4].wlan[0].mac.queue packetPushed:vector(packetBytes) ETV
attr interpolationmode none
attr title "packet pushed, vector(packetBytes)"
vector 91 Fanet.host[4].wlan[0].mac.queue queueLength:vector ETV
attr interpolationmode sample-hold
attr source "count(packetPushed) - count(packetPopped) - count(packetRemoved) - count(packetDropped)"
attr title "queue length, vector"
vector 92 Fanet.host[4].wlan[0].mac.queue packetPopped:vector(packetBytes) ETV
attr interpolationmode none
attr title "packet popped, vector(packetBytes)"
vector 93 Fanet.host[4].wlan[0].mac.queue queueingTime:vector ETV
attr interpolationmode none
attr source queueingTime(packetPopped)
attr title "queueing times, vector"
attr unit s
vector 94 Fanet.host[4].wlan[0].mac sentDownPk:vector(packetBytes) ETV
attr interpolationmode none
attr source packetSentToLower
attr title "packets sent to lower layer, vector(packetBytes)"
vector 95 Fanet.host[9].wlan[0].mac rcvdPkFromHl:vector(packetBytes) ETV
attr interpolationmode none
attr source packetReceivedFromUpper
attr title "packets received from higher layer, vector(packetBytes)"
vector 96 Fanet.host[9].wlan[0].mac.queue packetPushed:vector(packetBytes) ETV
attr interpolationmode none
attr title "packet pushed, vector(packetBytes)"
vector 97 Fanet.host[9].wlan[0].mac.queue queueLength:vector ETV
attr interpolationmode sample-hold
attr source "count(packetPushed) - count(packetPopped) - count(packetRemoved) - count(packetDropped)"
attr title "queue length, vector"
vector 98 Fanet.host[9].wlan[0].mac.queue packetPopped:vector(packetBytes) ETV
attr interpolationmode none
attr title "packet popped, vector(packetBytes)"
vector 99 Fanet.host[9].wlan[0].mac.queue queueingTime:vector ETV
attr interpolationmode none
attr source queueingTime(packetPopped)
attr title "queueing times, vector"
attr unit s
vector 100 Fanet.host[9].wlan[0].mac sentDownPk:vector(packetBytes) ETV
attr interpolationmode none
attr source packetSentToLower
attr title "packets sent to lower layer, vector(packetBytes)"
vector 101 Fanet.host[2].wlan[0].mac rcvdPkFromHl:vector(packetBytes) ETV
attr interpolationmode none
attr source packetReceivedFromUpper
attr title "packets received from higher layer, vector(packetBytes)"
vector 102 Fanet.host[2].wlan[0].mac.queue packetPushed:vector(packetBytes) ETV
attr interpolationmode none
attr title "packet pushed, vector(packetBytes)"
vector 103 Fanet.host[2].wlan[0].mac.queue queueLength:vector ETV
attr interpolationmode sample-hold
attr source "count(packetPushed) - count(packetPopped) - count(packetRemoved) - count(packetDropped)"
attr title "queue length, vector"
vector 104 Fanet.host[2].wlan[0].mac.queue packetPopped:vector(packetBytes) ETV
attr interpolationmode none
attr title "packet popped, vector(packetBytes)"
vector 105 Fanet.host[2].wlan[0].mac.queue queueingTime:vector ETV
attr interpolationmode none
attr source queueingTime(packetPopped)
attr title "queueing times, vector"
attr unit s
vector 106 Fanet.host[2].wlan[0].mac sentDownPk:vector(packetBytes) ETV
attr interpolationmode none
attr source packetSentToLower
attr title "packets sent to lower layer, vector(packetBytes)"
vector 107 Fanet.host[3].wlan[0].mac rcvdPkFromHl:vector(packetBytes) ETV
attr interpolationmode none
attr source packetReceivedFromUpper
attr title "packets received from higher layer, vector(packetBytes)"
vector 108 Fanet.host[3].wlan[0].mac.queue packetPushed:vector(packetBytes) ETV
attr interpolationmode none
attr title "packet pushed, vector(packetBytes)"
vector 109 Fanet.host[3].wlan[0].mac.queue queueLength:vector ETV
attr interpolationmode sample-hold
attr source "count(packetPushed) - count(packetPopped) - count(packetRemoved) - count(packetDropped)"
attr title "queue length, vector"
vector 110 Fanet.host[3].wlan[0].mac.queue packetPopped:vector(packetBytes) ETV
attr interpolationmode none
attr title "packet popped, vector(packetBytes)"
vector 111 Fanet.host[3].wlan[0].mac.queue queueingTime:vector ETV
attr interpolationmode none
attr source queueingTime(packetPopped)
attr title "queueing times, vector"
attr unit s
vector 112 Fanet.host[3].wlan[0].mac sentDownPk:vector(packetBytes) ETV
attr interpolationmode none
attr source packetSentToLower
attr title "packets sent to lower layer, vector(packetBytes)"
vector 113 Fanet.host[7].wlan[0].mac rcvdPkFromHl:vector(packetBytes) ETV
attr interpolationmode none
attr source packetReceivedFromUpper
attr title "packets received from higher layer, vector(packetBytes)"
vector 114 Fanet.host[7].wlan[0].mac.queue packetPushed:vector(packetBytes) ETV
attr interpolationmode none
attr title "packet pushed, vector(packetBytes)"
vector 115 Fanet.host[7].wlan[0].mac.queue queueLength:vector ETV
attr interpolationmode sample-hold
attr source "count(packetPushed) - count(packetPopped) - count(packetRemoved) - count(packetDropped)"
attr title "queue length, vector"
vector 116 Fanet.host[7].wlan[0].mac.queue packetPopped:vector(packetBytes) ETV
attr interpolationmode none
attr title "packet popped, vector(packetBytes)"
vector 117 Fanet.host[7].wlan[0].mac.queue queueingTime:vector ETV
attr interpolationmode none
attr source queueingTime(packetPopped)
attr title "queueing times, vector"
attr unit s
vector 118 Fanet.host[7].wlan[0].mac sentDownPk:vector(packetBytes) ETV
attr interpolationmode none
attr source packetSentToLower
attr title "packets sent to lower layer, vector(packetBytes)"
vector 119 Fanet.host[5].wlan[0].mac rcvdPkFromHl:vector(packetBytes) ETV
attr interpolationmode none
attr source packetReceivedFromUpper
attr title "packets received from higher layer, vector(packetBytes)"
vector 120 Fanet.host[5].wlan[0].mac.queue packetPushed:vector(packetBytes) ETV
attr interpolationmode none
attr title "packet pushed, vector(packetBytes)"
vector 121 Fanet.host[5].wlan[0].mac.queue queueLength:vector ETV
attr interpolationmode sample-hold
attr source "count(packetPushed) - count(packetPopped) - count(packetRemoved) - count(packetDropped)"
attr title "queue length, vector"
vector 122 Fanet.host[5].wlan[0].mac.queue packetPopped:vector(packetBytes) ETV
attr interpolationmode none
attr title "packet popped, vector(packetBytes)"
vector 123 Fanet.host[5].wlan[0].mac.queue queueingTime:vector ETV
attr interpolationmode none
attr source queueingTime(packetPopped)
attr title "queueing times, vector"
attr unit s
vector 124 Fanet.host[5].wlan[0].mac sentDownPk:vector(packetBytes) ETV
attr interpolationmode none
attr source packetSentToLower
attr title "packets sent to lower layer, vector(packetBytes)"
vector 125 Fanet.host[5].wlan[0].mac packetDropNotAddressedToUs:vector(packetBytes) ETV
attr interpolationmode none
attr source packetDropReasonIsNotAddressedToUs(packetDropped)
attr title "packet drop: not addressed to us, vector(packetBytes)"
vector 126 Fanet.host[0].wlan[0].mac packetDropNotAddressedToUs:vector(packetBytes) ETV
attr interpolationmode none
attr source packetDropReasonIsNotAddressedToUs(packetDropped)
attr title "packet drop: not addressed to us, vector(packetBytes)"
vector 127 Fanet.host[1].wlan[0].mac packetDropNotAddressedToUs:vector(packetBytes) ETV
attr interpolationmode none
attr source packetDropReasonIsNotAddressedToUs(packetDropped)
attr title "packet drop: not addressed to us, vector(packetBytes)"
vector 128 Fanet.host[0].app[0] throughput:vector ETV
attr source throughput(packetReceived)
attr title "throughput, vector"
attr unit bps
0	0	0	0
0	0	0	0
0	0	0	4
1	0	0	0
1	0	0	0
1	0	0	4
2	0	0	0
2	0	0	0
2	0	0	4
3	0	0	0
3	0	0	0
3	0	0	4
4	0	0	0
4	0	0	0
4	0	0	4
5	0	0	0
5	0	0	0
5	0	0	4
6	0	0	0
6	0	0	0
6	0	0	4
7	0	0	0
7	0	0	0
7	0	0	4
8	0	0	0
8	0	0	0
8	0	0	4
9	0	0	0
9	0	0	0
9	0	0	4
10	0	0	1
10	928	9.236549355289	3
10	938	9.236572021956	1
10	1100	10.448833547811	3
10	1113	10.448856214478	1
10	1247	10.928448315034	3
10	1263	10.928470981701	1
10	1344	11.027640197052	3
10	1375	11.027662863719	1
10	1447	11.235643189367	3
10	1475	11.235665856034	1
10	1624	12.151897337706	3
10	1652	12.151920004373	1
10	1836	13.442659440305	3
10	1849	13.442682106972	1
10	1886	13.472520202202	3
10	1905	13.472542868869	1
10	2668	18.903793960967	3
10	2681	18.903816627634	1
10	2781	19.292651495535	3
10	2791	19.292674162202	1
10	3015	20.695491149732	3
10	3028	20.695513816399	1
10	3112	21.012293679321	3
10	3143	21.012316345988	1
10	3356	22.370506895329	3
10	3369	22.370529561996	1
10	3420	22.440847112518	3
10	3442	22.440869779185	1
10	3901	25.664265644936	3
10	3929	25.664288311603	1
10	4082	26.940249995434	3
10	4110	26.940272662101	1
10	4239	27.728486491535	3
10	4252	27.728509158202	1
10	4450	28.623591674613	3
10	4469	28.62361434128	1
10	4788	30.431571939012	3
10	4804	30.431594605679	1
10	5032	31.685360932913	3
10	5045	31.68538359958	1
10	5249	32.993523853017	3
10	5259	32.993546519684	1
10	5445	34.003878122968	3
10	5467	34.003900789635	1
10	5537	34.159301957023	3
10	5550	34.15932462369	1
10	5993	36.928321040422	3
10	6006	36.928343707089	1
10	6067	37.15873091169	3
10	6089	37.158753578357	1
10	6146	37.464491126962	3
10	6162	37.464513793629	1
10	6300	38.185095766188	3
10	6313	38.185118432855	1
10	6358	38.250419797524	3
10	6380	38.250442464191	1
10	6708	40.152105612777	3
10	6724	40.152128279444	1
10	7149	42.493024608907	3
10	7159	42.493047275574	1
10	7291	43.374195709912	3
10	7313	43.374218376579	1
10	7369	43.637417474767	3
10	7382	43.637440141434	1
10	7483	44.2625552061	3
10	7505	44.262577872767	1
10	7713	46.046012442839	3
10	7732	46.046035109506	1
10	7768	46.122841293101	3
10	7778	46.122863959768	1
10	7842	46.339379216787	3
10	7861	46.339401883454	1
10	8369	49.328726276654	3
10	8388	49.328748943321	1
10	8708	51.170334196975	3
10	8727	51.170356863642	1
10	9060	53.406240921404	3
10	9079	53.406263588071	1
10	9138	53.783634877742	3
10	9157	53.783657544409	1
10	9208	54.024109321443	3
10	9230	54.02413198811	1
10	9260	54.192697487741	3
10	9273	54.192720154408	1
10	9452	55.035843889711	3
10	9465	55.035866556378	1
10	9612	55.709119615306	3
10	9631	55.709142281973	1
10	9668	55.869816476701	3
10	9681	55.869839143368	1
10	10653	60.908996264162	3
10	10672	60.909018930829	1
10	10731	61.261694554881	3
10	10741	61.261717221548	1
10	11042	63.470145530451	3
10	11061	63.470168197118	1
10	11129	63.824438087796	3
10	11154	63.824460754463	1
10	11244	64.120354339372	3
10	11269	64.120377006039	1
10	11361	64.549784612399	3
10	11380	64.549807279066	1
10	11587	66.084298883695	3
10	11597	66.084321550362	1
10	11863	67.188178202137	3
10	11885	67.188200868804	1
10	12238	68.960311320804	3
10	12266	68.960333987471	1
10	12395	69.655564236695	3
10	12420	69.655586903362	1
10	12626	71.141477167172	3
10	12642	71.141499833839	1
10	13222	74.229610161586	3
10	13247	74.229632828253	1
10	13385	75.428924692146	3
10	13395	75.428947358813	1
10	13556	76.660392792544	3
10	13584	76.660415459211	1
10	13734	77.540330443993	3
10	13768	77.54035311066	1
10	13861	77.973205677572	3
10	13886	77.973228344239	1
10	13937	78.247572876079	3
10	13962	78.247595542746	1
10	14026	78.629009149193	3
10	14045	78.62903181586	1
10	14915	84.900179039455	3
10	14934	84.900201706122	1
10	15102	85.947575434551	3
10	15130	85.947598101218	1
10	15160	86.030166595815	3
10	15188	86.030189262482	1
10	16044	90.917811179445	3
10	16069	90.917833846112	1
10	16206	91.766987447536	3
10	16228	91.767010114203	1
10	16951	95.784829636587	3
10	16964	95.784852303254	1
10	17015	95.803727918355	3
10	17037	95.803750585022	1
10	17076	95.960818336893	3
10	17107	95.96084100356	1
10	17163	96.362228195174	3
10	17182	96.362250861841	1
10	17660	99.752434156175	3
10	17682	99.752456822842	1
10	17842	100.71320525941	3
10	17876	100.713227926077	1
10	17990	101.054675171639	3
10	18009	101.054697838306	1
10	18339	103.173444432888	3
10	18370	103.173467099555	1
10	18537	103.994801812665	3
10	18553	103.994824479332	1
10	18642	104.480485819643	3
10	18670	104.48050848631	1
10	18753	105.117909914696	3
10	18769	105.117932581363	1
10	19131	107.355844393324	3
10	19153	107.355867059991	1
10	19403	109.370395538183	3
10	19416	109.37041820485	1
10	19475	109.577792101586	3
10	19491	109.577814768253	1
10	19672	110.327693549972	3
10	19688	110.327716216639	1
10	19804	111.105414830993	3
10	19832	111.10543749766	1
10	20241	112.752088614766	3
10	20257	112.752111281433	1
10	20345	113.279271247222	3
10	20370	113.279293913889	1
10	20662	115.201062682686	3
10	20672	115.201085349353	1
10	20912	115.770121297434	3
10	20925	115.770143964101	1
10	21243	118.161913061604	3
10	21265	118.161935728271	1
10	21343	118.649625218165	3
10	21362	118.649647884832	1
10	21430	119.060601346694	3
10	21443	119.060624013361	1
10	21654	120.429033208435	3
10	21673	120.429055875102	1
10	21808	120.640840768241	3
10	21830	120.640863434908	1
10	21996	121.351867781538	3
10	22006	121.351890448205	1
10	22531	125.404631111471	3
10	22541	125.404653778138	1
10	22582	125.41143103419	3
10	22595	125.411453700857	1
10	22881	126.615429216767	3
10	22900	126.615451883434	1
10	23041	127.72050304882	3
10	23057	127.720525715487	1
10	23190	128.730797077697	3
10	23200	128.730819744364	1
10	23544	130.641101414896	3
10	23560	130.641124081563	1
10	23667	131.395586970064	3
10	23689	131.395609636731	1
10	23881	133.09082295079	3
10	23900	133.090845617457	1
10	23995	133.341414110678	3
10	24011	133.341436777345	1
10	24177	134.734878812914	3
10	24193	134.734901479581	1
10	24323	135.767761630573	3
10	24342	135.76778429724	1
10	24578	137.19553758835	3
10	24594	137.195560255017	1
10	24719	137.713009398543	3
10	24732	137.71303206521	1
10	24820	138.262926318468	3
10	24833	138.262948985135	1
10	25311	140.615559278667	3
10	25327	140.615581945334	1
10	25463	141.336834624153	3
10	25473	141.33685729082	1
10	25679	142.611912983409	3
10	25695	142.611935650076	1
10	25882	143.791095435881	3
10	25916	143.791118102548	1
10	26280	146.540325068367	3
10	26299	146.540347735034	1
10	26428	147.073914418045	3
10	26447	147.073937084712	1
10	26887	149.676444503221	3
10	26915	149.676467169888	1
10	27017	150.401523202741	3
10	27042	150.401545869408	1
10	27269	151.702628047098	3
10	27291	151.702650713765	1
10	27371	152.280425298054	3
10	27396	152.280447964721	1
10	27505	153.026972582227	3
10	27539	153.026995248894	1
10	27644	153.486067637425	3
10	27678	153.486090304092	1
10	27798	154.173550167533	3
10	27823	154.1735728342	1
10	27941	154.75888061494	3
10	27951	154.758903281607	1
10	28428	157.923273121511	3
10	28453	157.923295788178	1
10	28512	158.214716181228	3
10	28546	158.214738847895	1
10	28757	159.821231196841	3
10	28782	159.821253863508	1
10	28829	160.015845991418	3
10	28857	160.015868658085	1
10	29101	162.28148842628	3
10	29132	162.281511092947	1
10	29407	163.712007509216	3
10	29423	163.712030175883	1
10	29611	164.592964927557	3
10	29621	164.592987594224	1
10	29790	165.462688366795	3
10	29803	165.462711033462	1
10	29936	166.351638390699	3
10	29964	166.351661057366	1
10	30250	167.339443482827	3
10	30281	167.339466149494	1
10	30321	167.538116035479	3
10	30352	167.538138702146	1
10	30529	168.701468022223	3
10	30560	168.70149068889	1
10	30680	169.733362230056	3
10	30711	169.733384896723	1
10	30761	170.003239596606	3
10	30792	170.003262263273	1
10	31172	172.526955908532	3
10	31200	172.526978575199	1
10	31514	175.174651577667	3
10	31524	175.174674244334	1
10	31596	175.460810720196	3
10	31609	175.460833386863	1
10	31696	175.534267092017	3
10	31724	175.534289758684	1
10	31864	176.300039298071	3
10	31892	176.300061964738	1
10	31925	176.451716865287	3
10	31953	176.451739531954	1
10	32043	176.782020206987	3
10	32071	176.782042873654	1
10	32134	177.16961812894	3
10	32162	177.169640795607	1
10	32254	177.831485128447	3
10	32279	177.831507795114	1
10	32310	177.933482886121	3
10	32320	177.933505552788	1
10	32906	181.368492033865	3
10	32934	181.368514700532	1
10	32954	181.386772597543	3
10	32973	181.38679526421	1
10	33331	183.873590858062	3
10	33356	183.873613524729	1
10	33577	185.091092881052	3
10	33605	185.091115547719	1
10	33652	185.341771836301	3
10	33662	185.341794502968	1
10	33743	185.700636135646	3
10	33762	185.700658802313	1
10	33944	187.296477356087	3
10	33963	187.296500022754	1
10	34032	187.661287549299	3
10	34042	187.661310215966	1
10	34223	188.616976204896	3
10	34242	188.616998871563	1
10	34402	189.513143815235	3
10	34424	189.513166481902	1
10	35050	194.220021844707	3
10	35078	194.220044511374	1
10	35189	194.845315897746	3
10	35199	194.845338564413	1
10	35361	195.678067093016	3
10	35383	195.678089759683	1
10	35442	195.933992878402	3
10	35464	195.934015545069	1
10	35523	196.230068123268	3
10	35545	196.230090789935	1
10	35624	196.765392913596	3
10	35646	196.765415580263	1
10	35905	197.966513519873	3
10	35924	197.96653618654	1
10	36077	199.106826129206	3
10	36099	199.106848795873	1
10	36151	199.435826746867	3
10	36170	199.435849413534	1
10	36511	201.897762660536	3
10	36533	201.897785327203	1
10	36704	202.621489645547	3
10	36726	202.621512312214	1
10	36758	202.775518622391	3
10	36768	202.775541289058	1
10	37290	206.305503153873	3
10	37312	206.30552582054	1
10	37409	207.112761236806	3
10	37431	207.112783903473	1
10	37664	208.890531172776	3
10	37689	208.890553839443	1
10	37724	208.963329535893	3
10	37755	208.96335220256	1
10	37874	209.673997694091	3
10	37884	209.674020360758	1
10	38100	210.599908408184	3
10	38122	210.599931074851	1
10	38399	211.971522567122	3
10	38421	211.971545233789	1
10	38480	212.28394746221	3
10	38502	212.283970128877	1
10	38582	212.816834771301	3
10	38595	212.816857437968	1
10	39139	216.173967503793	3
10	39167	216.17399017046	1
10	39380	217.399384661367	3
10	39414	217.399407328034	1
10	39707	219.141710212243	3
10	39720	219.14173287891	1
10	39760	219.192623406072	3
10	39788	219.192646072739	1
10	39821	219.293864266833	3
10	39849	219.2938869335	1
10	40599	223.324081809247	3
10	40633	223.324104475914	1
10	40763	223.739552661924	3
10	40776	223.739575328591	1
10	41324	226.54607566512	3
10	41346	226.546098331787	1
10	41671	228.084201665714	3
10	41699	228.084224332381	1
10	41831	229.119861954247	3
10	41856	229.119884620914	1
10	41971	230.002567469469	3
10	42002	230.002590136136	1
10	42441	232.437732763244	3
10	42451	232.437755429911	1
10	42560	232.798133311373	3
10	42585	232.79815597804	1
10	43024	235.454514040063	3
10	43046	235.45453670673	1
10	43276	236.792729364379	3
10	43304	236.792752031046	1
10	43335	236.850427545217	3
10	43357	236.850450211884	1
10	43398	236.973109842918	3
10	43426	236.973132509585	1
10	43450	237.008256475749	3
10	43460	237.008279142416	1
10	43743	238.359665901466	3
10	43765	238.359688568133	1
10	44261	242.113978971402	3
10	44289	242.114001638069	1
10	44353	242.626083887668	3
10	44363	242.626106554335	1
10	44405	242.682232884599	3
10	44427	242.682255551266	1
10	44518	243.231022836654	3
10	44546	243.231045503321	1
10	44752	244.758538072301	3
10	44768	244.758560738968	1
10	44796	244.784217551475	3
10	44809	244.784240218142	1
10	44870	244.958366051194	3
10	44892	244.958388717861	1
10	45397	248.467738655782	3
10	45422	248.467761322449	1
10	45463	248.604834246759	3
10	45482	248.604856913426	1
10	45512	248.664350951224	3
10	45525	248.664373617891	1
10	45792	250.588255527109	3
10	45811	250.588278193776	1
10	46143	252.800136797672	3
10	46168	252.800159464339	1
10	46204	252.903200768584	3
10	46229	252.903223435251	1
10	46257	253.064143432982	3
10	46267	253.064166099649	1
10	46587	254.370257313434	3
10	46600	254.370279980101	1
10	47181	257.73079599552	3
10	47206	257.730818662187	1
10	47249	257.962150110501	3
10	47265	257.962172777168	1
10	47340	258.39655986495	3
10	47356	258.396582531617	1
10	47443	258.865458921753	3
10	47465	258.86548158842	1
10	47752	260.303402246234	3
10	47774	260.303424912901	1
10	47822	260.50508479445	3
10	47841	260.505107461117	1
10	48382	264.538472939428	3
10	48395	264.538495606095	1
10	48496	265.114109346264	3
10	48518	265.114132012931	1
10	48603	265.280099199659	3
10	48619	265.280121866326	1
10	48776	265.733779074622	3
10	48786	265.733801741289	1
10	49326	269.287743931884	3
10	49339	269.287766598551	1
10	49708	270.938466472955	3
10	49727	270.938489139622	1
10	50017	272.485000073999	3
10	50036	272.485022740666	1
10	50142	273.349959927882	3
10	50158	273.349982594549	1
10	50268	273.789753603048	3
10	50287	273.789776269715	1
10	50454	274.300848498094	3
10	50476	274.300871164761	1
10	50603	274.998059883849	3
10	50628	274.998082550516	1
10	50951	276.498125261399	3
10	50973	276.498147928066	1
10	51255	277.536487507125	3
10	51271	277.536510173792	1
10	51338	277.815746005025	3
10	51360	277.815768671692	1
10	51397	278.028856289802	3
10	51410	278.028878956469	1
10	51646	279.625501805771	3
10	51671	279.625524472438	1
10	51833	281.090446422411	3
10	51846	281.090469089078	1
10	52034	282.529971996692	3
10	52056	282.529994663359	1
10	52137	283.077710897299	3
10	52165	283.077733563966	1
10	52233	283.573665522542	3
10	52246	283.573688189209	1
10	52398	283.944639647733	3
10	52420	283.9446623144	1
10	52851	286.743489425991	3
10	52864	286.743512092658	1
10	53024	287.931911214271	3
10	53043	287.931933880938	1
10	53116	288.306526339045	3
10	53138	288.306549005712	1
10	53264	288.924107172865	3
10	53286	288.924129839532	1
10	53524	290.657505358834	3
10	53552	290.657528025501	1
10	53596	290.885973938961	3
10	53627	290.885996605628	1
10	54273	295.569684884218	3
10	54295	295.569707550885	1
10	54365	295.910054427982	3
10	54390	295.910077094649	1
10	54471	296.592025978153	3
10	54481	296.59204864482	1
10	54564	296.91657449456	3
10	54580	296.916597161227	1
10	54674	297.547414786929	3
10	54687	297.547437453596	1
10	54836	298.202451088209	3
10	54861	298.202473754876	1
10	55234	301.370127576038	3
10	55259	301.370150242705	1
10	55296	301.471313727813	3
10	55324	301.47133639448	1
10	55477	302.723252552811	3
10	55505	302.723275219478	1
10	55578	303.268238038009	3
10	55606	303.268260704676	1
10	55727	304.242844085696	3
10	55749	304.242866752363	1
10	55807	304.545019849514	3
10	55826	304.545042516181	1
10	56194	307.038248929837	3
10	56207	307.038271596504	1
10	56434	308.978852138678	3
10	56444	308.978874805345	1
10	56649	310.187726848531	3
10	56680	310.187749515198	1
10	56888	311.352116140713	3
10	56901	311.35213880738	1
10	57100	312.5105832492	3
10	57125	312.510605915867	1
10	57436	314.532451120568	3
10	57452	314.532473787235	1
10	57502	314.694670189816	3
10	57533	314.694692856483	1
10	57814	316.161031306325	3
10	57845	316.161053972992	1
10	57868	316.261489177812	3
10	57878	316.261511844479	1
10	58073	317.317722152371	3
10	58104	317.317744819038	1
10	58248	318.213545159171	3
10	58270	318.213567825838	1
10	58655	320.204490600115	3
10	58668	320.204513266782	1
10	58781	321.022820765997	3
10	58815	321.022843432664	1
10	58948	322.256821785113	3
10	58970	322.25684445178	1
10	59163	323.539103712242	3
10	59188	323.539126378909	1
10	59426	324.817676053343	3
10	59454	324.81769872001	1
10	59714	326.810640358877	3
10	59745	326.810663025544	1
10	59795	327.219667364646	3
10	59805	327.219690031313	1
10	60142	329.216838380813	3
10	60161	329.21686104748	1
10	60702	332.073168522263	3
10	60718	332.07319118893	1
10	60782	332.362796655189	3
10	60813	332.362819321856	1
10	60872	332.742014019432	3
10	60900	332.742036686099	1
10	61408	336.81342788817	3
10	61439	336.813450554837	1
10	61598	337.941199834348	3
10	61620	337.941222501015	1
10	61655	338.087140229179	3
10	61683	338.087162895846	1
10	62221	340.935909019396	3
10	62246	340.935931686063	1
10	62469	342.163672950924	3
10	62479	342.163695617591	1
10	62834	344.56166226599	3
10	62862	344.561684932657	1
10	63028	345.52822192215	3
10	63050	345.528244588817	1
10	63162	346.027028629002	3
10	63187	346.027051295669	1
10	63252	346.190882708453	3
10	63277	346.19090537512	1
10	64097	351.962889676166	3
10	64131	351.962912342833	1
10	64152	352.054750858299	3
10	64168	352.054773524966	1
10	64508	354.249763704599	3
10	64530	354.249786371266	1
10	64573	354.322456533791	3
10	64607	354.322479200458	1
10	64668	354.811365079974	3
10	64684	354.811387746641	1
10	65125	358.009167784979	3
10	65159	358.009190451646	1
10	65172	358.034171236548	3
10	65194	358.034193903215	1
10	65398	359.042036923492	3
10	65432	359.042059590159	1
10	65525	359.814068415119	3
10	65547	359.814091081786	1
10	65951	362.179267047499	3
10	65964	362.179289714166	1
10	66086	362.590484497155	3
10	66120	362.590507163822	1
10	66231	363.11803582638	3
10	66256	363.118058493047	1
10	66617	365.083407492114	3
10	66630	365.083430158781	1
10	66677	365.112252682955	3
10	66687	365.112275349622	1
10	66908	366.12760034733	3
10	66936	366.127623013997	1
10	67420	369.525648445753	3
10	67445	369.52567111242	1
10	67563	370.175701914844	3
10	67573	370.175724581511	1
10	67773	371.317273014761	3
10	67798	371.317295681428	1
10	67917	371.937786840113	3
10	67930	371.93780950678	1
10	68139	373.225099089356	3
10	68164	373.225121756023	1
10	68217	373.509516857373	3
10	68233	373.50953952404	1
10	68280	373.606416137438	3
10	68302	373.606438804105	1
10	68328	373.698686972258	3
10	68350	373.698709638925	1
10	68682	376.344303887847	3
10	68701	376.344326554514	1
10	69137	379.173971916191	3
10	69153	379.173994582858	1
10	69527	381.478347757234	3
10	69546	381.478370423901	1
10	69571	381.486385474495	3
10	69581	381.486408141162	1
10	69760	382.417179132857	3
10	69770	382.417201799524	1
10	70057	384.112494406898	3
10	70073	384.112517073565	1
10	70498	386.847699340468	3
10	70508	386.847722007135	1
10	70622	387.513621840689	3
10	70641	387.513644507356	1
10	70695	387.846593807273	3
10	70708	387.84661647394	1
10	70775	388.234117662264	3
10	70791	388.234140328931	1
10	70832	388.309126602975	3
10	70845	388.309149269642	1
10	71328	391.685911655538	3
10	71353	391.685934322205	1
10	71528	393.215509331252	3
10	71538	393.215531997919	1
10	71701	394.181207172129	3
10	71714	394.181229838796	1
10	71877	395.483873332241	3
10	71893	395.483895998908	1
10	71960	395.796655938318	3
10	71982	395.796678604985	1
10	72105	396.389765828306	3
10	72127	396.389788494973	1
10	72385	397.278366399605	3
10	72398	397.278389066272	1
10	72516	398.035961842445	3
10	72529	398.035984509112	1
10	73103	402.107207214146	3
10	73128	402.107229880813	1
10	73291	403.114931576714	3
10	73316	403.114954243381	1
10	73387	403.629315145696	3
10	73397	403.629337812363	1
10	73443	403.667848505056	3
10	73468	403.667871171723	1
10	73794	405.988178615444	3
10	73807	405.988201282111	1
10	73855	406.036251730127	3
10	73868	406.036274396794	1
10	74130	407.906197723947	3
10	74143	407.906220390614	1
10	74339	408.782848948566	3
10	74364	408.782871615233	1
10	74640	410.12655012164	3
10	74671	410.126572788307	1
10	74731	410.231620107748	3
10	74744	410.231642774415	1
10	74817	410.587593458655	3
10	74842	410.587616125322	1
10	75055	411.571151992869	3
10	75086	411.571174659536	1
10	75159	411.753047091937	3
10	75181	411.753069758604	1
10	75652	414.64930906768	3
10	75671	414.649331734347	1
10	75764	415.380185820586	3
10	75783	415.380208487253	1
10	76321	418.958971531474	3
10	76346	418.958994198141	1
10	76727	420.87699243984	3
10	76752	420.877015106507	1
10	77034	422.383701055186	3
10	77062	422.383723721853	1
10	77127	422.726078824937	3
10	77161	422.726101491604	1
10	77265	423.660066682374	3
10	77290	423.660089349041	1
10	77369	424.107174088258	3
10	77403	424.107196754925	1
10	77697	426.287971122203	3
10	77722	426.28799378887	1
10	78081	427.99115219698	3
10	78112	427.991174863647	1
10	78240	429.06047385654	3
10	78274	429.060496523207	1
10	78335	429.556266987862	3
10	78351	429.556289654529	1
10	78487	430.075212657957	3
10	78512	430.075235324624	1
10	78792	432.205127666081	3
10	78811	432.205150332748	1
10	78994	433.311505091053	3
10	79028	433.31152775772	1
10	79520	436.510081466473	3
10	79551	436.51010413314	1
10	79876	438.142539161028	3
10	79910	438.142561827695	1
10	80247	439.505156758286	3
10	80281	439.505179424953	1
10	80324	439.872097516022	3
10	80346	439.872120182689	1
10	80562	441.451037390936	3
10	80575	441.451060057603	1
10	80642	441.770331022811	3
10	80652	441.770353689478	1
10	80741	441.845390059963	3
10	80761	441.845755393296	1
10	80887	442.986937090342	3
10	80918	442.986959757009	1
10	81123	444.372805259129	3
10	81154	444.372827925796	1
10	81403	445.945322744086	3
10	81422	445.945688077419	1
10	81490	446.105266895129	3
10	81509	446.105632228462	1
10	81600	446.976117931859	3
10	81610	446.976140598526	1
10	81689	447.209442206878	3
10	81723	447.209464873545	1
10	81768	447.260240979937	3
10	81786	447.26060631327	1
10	82034	449.241195511847	3
10	82052	449.24156084518	1
10	82110	449.34351395216	3
10	82128	449.343879285493	1
10	82246	450.032224532458	3
10	82264	450.032589865791	1
10	82401	450.902304111344	3
10	82418	450.902669444677	1
10	82487	451.178791690514	3
10	82504	451.179157023847	1
10	82573	451.363947673847	3
10	82590	451.36431300718	1
10	82661	451.853364624103	3
10	82689	451.85338729077	1
10	82975	453.327070027476	3
10	82992	453.327435360809	1
10	83032	453.518459130391	3
10	83057	453.518481797058	1
10	83099	453.866744307972	3
10	83109	453.866766974639	1
10	83153	453.869837489604	3
10	83184	453.869860156271	1
10	83466	456.128654440275	3
10	83482	456.128677106942	1
10	83593	456.904947116159	3
10	83615	456.904969782826	1
10	83659	457.18211381566	3
10	83675	457.182136482327	1
10	83829	457.911428976885	3
10	83860	457.911451643552	1
10	84071	458.777059975121	3
10	84102	458.777082641788	1
10	84283	459.676797951437	3
10	84305	459.676820618104	1
10	84876	463.181697442508	3
10	84886	463.181720109175	1
10	84998	463.440424077686	3
10	85020	463.440446744353	1
10	85066	463.664284961206	3
10	85079	463.664307627873	1
10	85163	464.08458394455	3
10	85194	464.084606611217	1
10	85241	464.365761821226	3
10	85263	464.365784487893	1
10	85479	465.819177762026	3
10	85501	465.819200428693	1
10	85595	466.142010886371	3
10	85620	466.142033553038	1
10	86053	468.88211834137	3
10	86063	468.882141008037	1
10	86397	470.801248194824	3
10	86422	470.801270861491	1
10	86581	471.814465209597	3
10	86603	471.814487876264	1
10	86881	473.981377414064	3
10	86909	473.981400080731	1
10	87080	475.192366172298	3
10	87102	475.192388838965	1
10	87133	475.198498785955	3
10	87161	475.198521452622	1
10	87306	475.8025257615	3
10	87334	475.802548428167	1
10	87468	476.629185249846	3
10	87478	476.629207916513	1
10	87525	476.653578711255	3
10	87553	476.653601377922	1
10	87661	477.580334861108	3
10	87674	477.580357527775	1
10	87736	477.878720176007	3
10	87749	477.878742842674	1
10	88181	480.814601054238	3
10	88212	480.814623720905	1
10	88463	483.162329134891	3
10	88497	483.162351801558	1
10	88832	485.671622303866	3
10	88848	485.671644970533	1
10	89222	487.822171763708	3
10	89235	487.822194430375	1
10	89280	487.87425019552	3
10	89314	487.874272862187	1
10	89489	488.353558954513	3
10	89523	488.35358162118	1
10	89619	488.86403514568	3
10	89632	488.864057812347	1
10	89810	489.366852545925	3
10	89841	489.366875212592	1
10	90083	490.841916478545	3
10	90114	490.841939145212	1
10	90174	491.23665210235	3
10	90205	491.236674769017	1
10	90668	493.727359434004	3
10	90702	493.727382100671	1
10	90828	494.520083020716	3
10	90841	494.520105687383	1
10	90903	494.796420961395	3
10	90937	494.796443628062	1
10	91108	495.988054448954	3
10	91136	495.988077115621	1
10	91390	497.876898024581	3
10	91415	497.876920691248	1
10	91538	498.194962519994	3
10	91557	498.194985186661	1
11	0	0	1
11	1146	10.488135023043	2
11	1156	10.48815768971	1
11	1301	11	2
11	1311	11.000365333333	1
11	1385	11.058384669093	2
11	1395	11.058750002426	1
11	1522	11.541986774041	2
11	1532	11.542352107374	1
11	1779	13.214197974366	2
11	1789	13.214563307699	1
11	2033	14.053630827266	2
11	2043	14.053996160599	1
11	2109	14.465208823509	2
11	2119	14.465574156842	1
11	2255	15.509821331817	2
11	2265	15.51018666515	1
11	2331	15.969069469072	2
11	2341	15.969434802405	1
11	2735	19.119239397748	2
11	2745	19.119604731081	1
11	2885	19.864007122815	2
11	2895	19.864029789482	1
11	3163	21.15955365569	2
11	3173	21.159918989023	1
11	3259	21.778483115317	2
11	3269	21.77884844865	1
11	3547	23.295019089307	2
11	3557	23.29538442264	1
11	3693	24.316450963656	2
11	3703	24.316816296989	1
11	3739	24.471180644156	2
11	3749	24.471545977489	1
11	4161	27.365601122143	2
11	4171	27.365966455476	1
11	4303	27.901166842371	2
11	4313	27.901532175704	1
11	4360	28.107370124401	2
11	4370	28.107735457734	1
11	4575	29.442660309025	2
11	4585	29.443025642358	1
11	4692	30.282995014637	2
11	4702	30.28336034797	1
11	4739	30.301963583838	2
11	4749	30.302328917171	1
11	4917	31.263344522904	2
11	4927	31.263709856237	1
11	4984	31.514786454979	2
11	4994	31.515151788312	1
11	5122	32.003343504287	2
11	5132	32.00370883762	1
11	5314	33.148482458987	2
11	5324	33.14884779232	1
11	5489	34.097977042484	2
11	5499	34.098342375817	1
11	5636	34.650190551766	2
11	5646	34.650213218433	1
11	5748	35.294084841941	2
11	5758	35.294450175274	1
11	5895	36.392997309492	2
11	5905	36.393362642825	1
11	6202	37.503594755179	2
11	6212	37.503960088512	1
11	6465	38.89263744497	2
11	6475	38.893002778303	1
11	6542	39.285750002274	2
11	6552	39.286115335607	1
11	6589	39.324933158687	2
11	6599	39.32529849202	1
11	6766	40.252445216757	2
11	6776	40.252467883424	1
11	6828	40.330804163854	2
11	6838	40.331169497187	1
11	6965	41.388630577206	2
11	6975	41.388995910539	1
11	7102	42.396649822626	2
11	7112	42.397015155959	1
11	8021	47.756750172869	2
11	8031	47.757115506202	1
11	8078	47.929877629015	2
11	8088	47.930242962348	1
11	8125	48.046833038807	2
11	8135	48.04719837214	1
11	8272	49.114905235957	2
11	8282	49.11527056929	1
11	8319	49.263617505209	2
11	8329	49.263982838542	1
11	8424	49.482498101716	2
11	8434	49.482863435049	1
11	8571	50.568767482594	2
11	8581	50.569132815927	1
11	8608	50.582432061025	2
11	8618	50.582797394358	1
11	8793	51.557533995181	2
11	8803	51.557899328514	1
11	8840	51.65856877049	2
11	8850	51.658934103823	1
11	9379	54.841937909369	2
11	9389	54.841960576036	1
11	9542	55.407600230074	2
11	9552	55.407965563407	1
11	9808	56.751845502226	2
11	9818	56.752210835559	1
11	9875	57.08425574319	2
11	9885	57.084621076523	1
11	9932	57.212312508501	2
11	9942	57.212677841834	1
11	9999	57.563488597882	2
11	10009	57.563853931215	1
11	10046	57.689877234307	2
11	10056	57.69024256764	1
11	10123	58.072578183169	2
11	10133	58.072943516502	1
11	10221	58.607462558926	2
11	10231	58.607827892259	1
11	10258	58.673759960408	2
11	10268	58.674125293741	1
11	10415	59.852949487473	2
11	10425	59.853314820806	1
11	10501	60.399084838573	2
11	10511	60.39910750524	1
11	10583	60.689047019443	2
11	10593	60.689412352776	1
11	10802	61.40029495666	2
11	10812	61.400660289993	1
11	11182	63.940599464619	2
11	11192	63.940964797952	1
11	11291	64.265939880148	2
11	11301	64.266305213481	1
11	11480	65.366785790239	2
11	11490	65.367151123572	1
11	11678	66.408566444418	2
11	11688	66.408931777751	1
11	11745	66.750220611444	2
11	11755	66.750585944777	1
11	11802	66.952571050011	2
11	11812	66.952936383344	1
11	11974	67.83570009197	2
11	11984	67.836065425303	1
11	12031	68.015952343955	2
11	12041	68.016317677288	1
11	12108	68.477683239999	2
11	12118	68.478048573332	1
11	12165	68.63602474623	2
11	12175	68.636390079563	1
11	12333	69.479107778378	2
11	12343	69.479473111711	1
11	12558	70.807865652128	2
11	12568	70.808230985461	1
11	12695	71.375769805608	2
11	12705	71.376135138941	1
11	12821	72.234162773437	2
11	12831	72.23452810677	1
11	12986	73.130753644223	2
11	12996	73.131118977556	1
11	13112	74.05011047842	2
11	13122	74.050133145087	1
11	13171	74.149412374242	2
11	13181	74.149777707575	1
11	13661	77.201694031126	2
11	13671	77.202059364459	1
11	14314	81.04470061437	2
11	14324	81.045065947703	1
11	14367	81.280926784966	2
11	14377	81.280949451633	1
11	14437	81.549719362125	2
11	14447	81.550084695458	1
11	14500	81.837129838195	2
11	14510	81.837495171528	1
11	14573	82.212868680602	2
11	14583	82.213234013935	1
11	15023	85.577239133653	2
11	15033	85.577604466986	1
11	15358	86.655074017789	2
11	15368	86.655439351122	1
11	15441	87.15738481605	2
11	15451	87.157750149383	1
11	15574	88.121838381544	2
11	15584	88.122203714877	1
11	15668	88.765943089867	2
11	15678	88.7663084232	1
11	15772	89.401070805498	2
11	15782	89.401436138831	1
11	15974	90.660114322762	2
11	15984	90.660479656095	1
11	16097	91.00271394746	2
11	16107	91.003079280793	1
11	16313	92.385693153997	2
11	16323	92.38605848733	1
11	16368	92.531267132445	2
11	16378	92.531632465778	1
11	16433	92.88549126469	2
11	16443	92.885856598023	1
11	16487	93.035317556932	2
11	16497	93.035340223599	1
11	16645	93.729379737281	2
11	16655	93.729745070614	1
11	16760	94.583459472924	2
11	16770	94.583824806257	1
11	16905	95.642468858305	2
11	16915	95.642834191638	1
11	17241	96.698318466965	2
11	17251	96.698683800298	1
11	17326	97.156491350923	2
11	17336	97.156856684256	1
11	17421	97.728952902351	2
11	17431	97.729318235684	1
11	17718	99.953867559576	2
11	17728	99.954232892909	1
11	17885	100.723944419122	2
11	17895	100.724309752455	1
11	17931	100.829557062751	2
11	17941	100.829922396084	1
11	18123	101.575784201268	2
11	18133	101.575806867935	1
11	18403	103.348839192834	2
11	18413	103.349204526167	1
11	18459	103.510709279546	2
11	18469	103.511074612879	1
11	18839	105.536618096649	2
11	18849	105.536983429982	1
11	18895	105.719156698532	2
11	18905	105.719522031865	1
11	19081	107.228980154141	2
11	19091	107.229345487474	1
11	19356	109.230966649667	2
11	19366	109.231331983	1
11	19568	110.072847611399	2
11	19578	110.073212944732	1
11	19614	110.144522995712	2
11	19624	110.144888329045	1
11	19855	111.268275917973	2
11	19865	111.26829858464	1
11	19914	111.339961561994	2
11	19924	111.340326895327	1
11	19951	111.391874114177	2
11	19961	111.39223944751	1
11	20038	111.846785958969	2
11	20048	111.847151292302	1
11	20075	111.863553724961	2
11	20085	111.863919058294	1
11	20142	112.125883034127	2
11	20152	112.12624836746	1
11	20418	113.573677116115	2
11	20428	113.574042449448	1
11	20595	114.959968468136	2
11	20605	114.960333801469	1
11	20723	115.374581010795	2
11	20733	115.374946344128	1
11	20770	115.430451063684	2
11	20780	115.430816397017	1
11	20827	115.653590271785	2
11	20837	115.653955605118	1
11	20864	115.672285742206	2
11	20874	115.672651075539	1
11	21112	117.250698464312	2
11	21122	117.251063797645	1
11	21504	119.326729524755	2
11	21514	119.327094858088	1
11	21695	120.469029594678	2
11	21705	120.469052261345	1
11	21757	120.545526328098	2
11	21767	120.545891661431	1
11	21862	120.72548366965	2
11	21872	120.725849002983	1
11	21899	120.777166575445	2
11	21909	120.777531908778	1
11	22107	121.978137481987	2
11	22117	121.97850281532	1
11	22414	124.6994857379	2
11	22424	124.699851071233	1
11	22653	125.651315445442	2
11	22663	125.651680778775	1
11	22699	125.787418833933	2
11	22709	125.7874415006	1
11	22831	126.542694022352	2
11	22841	126.543059355685	1
11	23351	129.880628356206	2
11	23361	129.880993689539	1
11	23418	130.116152929625	2
11	23428	130.116518262958	1
11	23475	130.322184978108	2
11	23485	130.322550311441	1
11	23946	133.211260570007	2
11	23956	133.21162590334	1
11	24462	136.725739250544	2
11	24472	136.726104583877	1
11	24499	136.785520213459	2
11	24509	136.785885546792	1
11	24641	137.355417778765	2
11	24651	137.355783112098	1
11	24869	138.29586130334	2
11	24879	138.295883970007	1
11	25041	139.484087873296	2
11	25051	139.484453206629	1
11	25098	139.68205560863	2
11	25108	139.682420941963	1
11	25145	139.707043961943	2
11	25155	139.707409295276	1
11	25182	139.776661633017	2
11	25192	139.77702696635	1
11	25387	140.914200138558	2
11	25397	140.914565471891	1
11	25581	142.044555684469	2
11	25591	142.044921017802	1
11	25985	144.314395700253	2
11	25995	144.314761033586	1
11	26081	144.92322861399	2
11	26091	144.923593947323	1
11	26377	147.073379675857	2
11	26387	147.073402342524	1
11	26497	147.292146784827	2
11	26507	147.29251211816	1
11	26683	148.712530240412	2
11	26693	148.712895573745	1
11	26749	149.098217934457	2
11	26759	149.09858326779	1
11	26835	149.581856321947	2
11	26845	149.58222165528	1
11	27063	150.469358250431	2
11	27073	150.469723583764	1
11	27199	151.460862543328	2
11	27209	151.461227876661	1
11	27587	153.445583884604	2
11	27597	153.445606551271	1
11	27697	153.521683784209	2
11	27707	153.522049117542	1
11	27894	154.660741434882	2
11	27904	154.661106768215	1
11	28102	155.823854718307	2
11	28112	155.82422005164	1
11	28289	157.378517656116	2
11	28299	157.378882989449	1
11	28356	157.639157785492	2
11	28366	157.639523118825	1
11	28705	159.761904439434	2
11	28715	159.762269772767	1
11	29215	162.91899998085	2
11	29225	162.919365314183	1
11	29272	163.151524999235	2
11	29282	163.151890332568	1
11	29369	163.704363369887	2
11	29379	163.70472870322	1
11	29497	164.173039845864	2
11	29507	164.173405179197	1
11	29564	164.414959490635	2
11	29574	164.415324823968	1
11	29672	164.62131748424	2
11	29682	164.621682817573	1
11	29990	166.426052188035	2
11	30000	166.426074854702	1
11	30062	166.615356685517	2
11	30072	166.61572201885	1
11	30129	166.939555799003	2
11	30139	166.939921132336	1
11	30186	167.131817239845	2
11	30196	167.132182573178	1
11	30445	168.350816585026	2
11	30455	168.351181918359	1
11	30815	170.186079987966	2
11	30825	170.186445321299	1
11	30922	170.855620578827	2
11	30932	170.85598591216	1
11	30999	171.29507596932	2
11	31009	171.295441302653	1
11	31377	174.115711917735	2
11	31387	174.116077251068	1
11	31643	175.490054932155	2
11	31653	175.490420265488	1
11	31761	175.735253024797	2
11	31771	175.73561835813	1
11	31980	176.538644787464	2
11	31990	176.539010120797	1
11	32380	178.174525639042	2
11	32390	178.174548305709	1
11	32602	179.807141188287	2
11	32612	179.80750652162	1
11	32639	179.872254053074	2
11	32649	179.872619386407	1
11	32756	180.683395075302	2
11	32766	180.683760408635	1
11	32792	180.69267809968	2
11	32802	180.693043433013	1
11	33112	182.482667704161	2
11	33122	182.483033037494	1
11	33269	183.69835817752	2
11	33279	183.698723510853	1
11	33377	183.898800372606	2
11	33387	183.899165705939	1
11	33484	184.563608122158	2
11	33494	184.563973455491	1
11	34153	188.357631905246	2
11	34163	188.357997238579	1
11	34301	188.964911193865	2
11	34311	188.965276527198	1
11	34488	189.947158705909	2
11	34498	189.947181372576	1
11	34740	191.947111869338	2
11	34750	191.947477202671	1
11	34937	193.552570632406	2
11	34947	193.552935965739	1
11	35122	194.548034275773	2
11	35132	194.548399609106	1
11	35280	195.237468813621	2
11	35290	195.237834146954	1
11	35711	197.127570511717	2
11	35721	197.12793584505	1
11	35788	197.554106323753	2
11	35798	197.554471657086	1
11	35845	197.71444041824	2
11	35855	197.714805751573	1
11	36423	201.722390073114	2
11	36433	201.722755406447	1
11	36459	201.726446394435	2
11	36469	201.726811727768	1
11	36566	202.040444292498	2
11	36576	202.040809625831	1
11	36613	202.187669329811	2
11	36623	202.188034663144	1
11	36926	203.914302709553	2
11	36936	203.914668042886	1
11	37001	204.36093575554	2
11	37011	204.360958422207	1
11	37080	204.630348027547	2
11	37090	204.63071336088	1
11	37593	208.577981295106	2
11	37603	208.578346628439	1
11	37818	209.420117597943	2
11	37828	209.420482931276	1
11	38008	210.567505720537	2
11	38018	210.567528387204	1
11	38187	210.975411958298	2
11	38197	210.975777291631	1
11	38273	211.485402792147	2
11	38283	211.48576812548	1
11	38349	211.844696697273	2
11	38359	211.845062030606	1
11	38679	213.337328861465	2
11	38689	213.337694194798	1
11	38714	213.392236234016	2
11	38724	213.392601567349	1
11	38879	214.685384092812	2
11	38889	214.685749426145	1
11	38914	214.696877343021	2
11	38924	214.697242676354	1
11	39099	216.169081501015	2
11	39109	216.169446834348	1
11	39202	216.328014680671	2
11	39212	216.328380014004	1
11	39267	216.616527391019	2
11	39277	216.616892724352	1
11	39463	217.747906158623	2
11	39473	217.748271491956	1
11	39528	218.029430181094	2
11	39538	218.029795514427	1
11	39612	218.575087895861	2
11	39622	218.575453229194	1
11	39876	219.390106226757	2
11	39886	219.39047156009	1
11	39920	219.491640310698	2
11	39930	219.492005644031	1
11	39973	219.681229873095	2
11	39983	219.681252539762	1
11	40026	219.787542183946	2
11	40036	219.787907517279	1
11	40070	219.844508716413	2
11	40080	219.844874049746	1
11	40144	220.20347003479	2
11	40154	220.203835368123	1
11	40208	220.507441594019	2
11	40218	220.507806927352	1
11	40302	221.116506049343	2
11	40312	221.116871382676	1
11	40446	222.266247437093	2
11	40456	222.266612770426	1
11	40652	223.455743688428	2
11	40662	223.456109021761	1
11	40843	224.02391417217	2
11	40853	224.024279505503	1
11	40948	224.735922237795	2
11	40958	224.736287571128	1
11	40994	224.826259481877	2
11	41004	224.82662481521	1
11	41140	225.905186390377	2
11	41150	225.90555172371	1
11	41175	225.996057831217	2
11	41185	225.996080497884	1
11	41244	226.136607362332	2
11	41254	226.136972695665	1
11	41481	227.639020156043	2
11	41491	227.639385489376	1
11	41537	227.83548204194	2
11	41547	227.835847375273	1
11	41583	227.907901152055	2
11	41593	227.908266485388	1
11	41618	227.917636561396	2
11	41628	227.918001894729	1
11	42022	230.143720550838	2
11	42032	230.144085884171	1
11	42118	230.759639834622	2
11	42128	230.760005167955	1
11	42164	230.805277884118	2
11	42174	230.805643217451	1
11	42360	232.413695733204	2
11	42370	232.414061066537	1
11	42489	232.493774589148	2
11	42499	232.494139922481	1
11	42616	232.860225880981	2
11	42626	232.860591214314	1
11	42702	233.395630232074	2
11	42712	233.395995565407	1
11	42758	233.586926277972	2
11	42768	233.587291611305	1
11	42864	234.231834769138	2
11	42874	234.232200102471	1
11	43098	235.762683188081	2
11	43108	235.763048521414	1
11	43204	236.476067470882	2
11	43214	236.476432804215	1
11	43521	237.244320812749	2
11	43531	237.244686146082	1
11	43567	237.382274044678	2
11	43577	237.382639378011	1
11	43653	237.880966377548	2
11	43663	237.881331710881	1
11	43829	238.783011799679	2
11	43839	238.783034466346	1
11	44108	241.013795867095	2
11	44118	241.014161200428	1
11	44573	243.357035797188	2
11	44583	243.357401130521	1
11	44967	245.494457487605	2
11	44977	245.494822820938	1
11	45023	245.6543207285	2
11	45033	245.654343395167	1
11	45265	247.591093761128	2
11	45275	247.591459094461	1
11	45692	249.934963401927	2
11	45702	249.93532873526	1
11	45864	250.802933383945	2
11	45874	250.803298717278	1
11	46041	252.216716713484	2
11	46051	252.217082046817	1
11	46328	253.227485876583	2
11	46338	253.227851209916	1
11	46364	253.237300312981	2
11	46374	253.237665646314	1
11	46442	253.605883252592	2
11	46452	253.606248585925	1
11	46499	253.870976353999	2
11	46509	253.871341687332	1
11	46657	254.571001990114	2
11	46667	254.571367323447	1
11	46703	254.644573999104	2
11	46713	254.644596665771	1
11	46945	256.520978901961	2
11	46955	256.521344235294	1
11	46992	256.623530794965	2
11	47002	256.623896128298	1
11	47119	257.595541686027	2
11	47129	257.59590701936	1
11	47557	259.583481140871	2
11	47567	259.583846474204	1
11	47604	259.672313523526	2
11	47614	259.672678856859	1
11	47651	259.77153505001	2
11	47661	259.771900383343	1
11	47890	260.775586223888	2
11	47900	260.775951557221	1
11	48207	263.536190679571	2
11	48217	263.536556012904	1
11	48304	264.129272276896	2
11	48314	264.129637610229	1
11	48549	265.222686994822	2
11	48559	265.222709661489	1
11	48672	265.430109704356	2
11	48682	265.430475037689	1
11	48719	265.557683278153	2
11	48729	265.558048611486	1
11	48867	266.144452084833	2
11	48877	266.144817418166	1
11	48904	266.160915368818	2
11	48914	266.161280702151	1
11	48961	266.365767635965	2
11	48971	266.366132969298	1
11	49048	266.878694627794	2
11	49058	266.879059961127	1
11	49403	269.527882890024	2
11	49413	269.528248223357	1
11	49530	270.467384875887	2
11	49540	270.46775020922	1
11	49576	270.555733258371	2
11	49586	270.555755925038	1
11	49628	270.571055712529	2
11	49638	270.571421045862	1
11	49773	271.176489494169	2
11	49783	271.176854827502	1
11	49820	271.266996964317	2
11	49830	271.26736229765	1
11	49887	271.537721355054	2
11	49897	271.538086688387	1
11	50188	273.367263510913	2
11	50198	273.367628844246	1
11	50346	274.086908408602	2
11	50356	274.087273741935	1
11	50393	274.157410356963	2
11	50403	274.157775690296	1
11	50511	274.447683772086	2
11	50521	274.448049105419	1
11	50689	275.315545641974	2
11	50699	275.315910975307	1
11	50736	275.456021358929	2
11	50746	275.456386692262	1
11	50773	275.468130603991	2
11	50783	275.468495937324	1
11	50820	275.590845611308	2
11	50830	275.591210944641	1
11	51005	276.554438307597	2
11	51015	276.55480364093	1
11	51092	277.02335963487	2
11	51102	277.023724968203	1
11	51129	277.070094536605	2
11	51139	277.070459869938	1
11	51206	277.441256257406	2
11	51216	277.441621590739	1
11	51564	279.222190932297	2
11	51574	279.22255626563	1
11	52300	283.770014784157	2
11	52310	283.77038011749	1
11	52347	283.843066441312	2
11	52357	283.843431774645	1
11	52474	284.250618589577	2
11	52484	284.250641256244	1
11	52596	284.993729034241	2
11	52606	284.994094367574	1
11	52733	285.998662343301	2
11	52743	285.999027676634	1
11	53193	288.614303275723	2
11	53203	288.614668609056	1
11	53361	289.423282970856	2
11	53371	289.423648304189	1
11	53667	291.152402608539	2
11	53677	291.152767941872	1
11	53764	291.745060026476	2
11	53774	291.745425359809	1
11	53930	293.057911037468	2
11	53940	293.057933704135	1
11	54202	295.215705107011	2
11	54212	295.216070440344	1
11	54754	297.805531252508	2
11	54764	297.805896585841	1
11	55112	300.574675735346	2
11	55122	300.575041068679	1
11	55885	304.807691531678	2
11	55895	304.808056865011	1
11	56071	306.344480195549	2
11	56081	306.344502862216	1
11	56555	309.637411779647	2
11	56565	309.63777711298	1
11	56713	310.309794681685	2
11	56723	310.310160015018	1
11	56770	310.575611230707	2
11	56780	310.57597656404	1
11	56978	311.746046960721	2
11	56988	311.746412294054	1
11	57265	313.759937074502	2
11	57275	313.759959741169	1
11	57367	314.231678045068	2
11	57377	314.232043378401	1
11	57606	315.228976969235	2
11	57616	315.229342302568	1
11	57683	315.697772660874	2
11	57693	315.698137994207	1
11	57760	316.089933950497	2
11	57770	316.09029928383	1
11	58019	317.229729357162	2
11	58029	317.230094690495	1
11	58177	317.930774866488	2
11	58187	317.931140199821	1
11	58292	318.293853706672	2
11	58302	318.294219040005	1
11	58379	318.727518562046	2
11	58389	318.727883895379	1
11	58525	319.898103466258	2
11	58535	319.898126132925	1
11	58597	320.068420286637	2
11	58607	320.06878561997	1
11	59062	322.925845634453	2
11	59072	322.926210967786	1
11	59219	323.659070973132	2
11	59229	323.659436306465	1
11	59491	325.04842948008	2
11	59501	325.048794813413	1
11	59954	328.489373527665	2
11	59964	328.489738860998	1
11	60049	329.090528174049	2
11	60059	329.090893507382	1
11	60094	329.164034551468	2
11	60104	329.164399884801	1
11	60220	329.510467878963	2
11	60230	329.510833212296	1
11	60294	329.921998030041	2
11	60304	329.922020696708	1
11	60405	330.103798447224	2
11	60415	330.104163780557	1
11	60480	330.579138116866	2
11	60490	330.579503450199	1
11	60525	330.684534246778	2
11	60535	330.684899580111	1
11	61076	333.909850330495	2
11	61086	333.910215663828	1
11	61549	337.800760420903	2
11	61559	337.801125754236	1
11	61802	338.697813435009	2
11	61812	338.698178768342	1
11	61876	339.096861747094	2
11	61886	339.096884413761	1
11	61972	339.56510545384	2
11	61982	339.565470787173	1
11	62037	339.882082833726	2
11	62047	339.882448167059	1
11	62132	340.489867597843	2
11	62142	340.490232931176	1
11	62277	341.003553211107	2
11	62287	341.00391854444	1
11	62620	343.193199925665	2
11	62630	343.193565258998	1
11	62694	343.518616642827	2
11	62704	343.51898197616	1
11	63092	345.771109512898	2
11	63102	345.771474846231	1
11	63212	346.176835856765	2
11	63222	346.177201190098	1
11	63686	349.591760759197	2
11	63696	349.59212609253	1
11	63730	349.617644448299	2
11	63740	349.617667114966	1
11	64054	351.909286821763	2
11	64064	351.909652155096	1
11	64458	354.109616142207	2
11	64468	354.10998147554	1
11	64777	355.457064965898	2
11	64787	355.457430299231	1
11	64981	357.15406967327	2
11	64991	357.154092339937	1
11	65249	358.352182582919	2
11	65259	358.352547916252	1
11	65324	358.770274241863	2
11	65334	358.770639575196	1
11	65572	359.898034675436	2
11	65582	359.898400008769	1
11	65689	360.682591372354	2
11	65699	360.682956705687	1
11	65766	361.014851995933	2
11	65776	361.015217329266	1
11	65803	361.045553768944	2
11	65813	361.045919102277	1
11	66011	362.284590276322	2
11	66021	362.284955609655	1
11	66169	362.901183364845	2
11	66179	362.901548698178	1
11	66327	363.657349612635	2
11	66337	363.657714945968	1
11	66414	364.10543758101	2
11	66424	364.105802914343	1
11	66521	364.804018587089	2
11	66531	364.804383920422	1
11	66569	364.970814345211	2
11	66579	364.971179678544	1
11	66768	365.525082818624	2
11	66778	365.525448151957	1
11	66804	365.533630837269	2
11	66814	365.533996170602	1
11	67240	369.003024676046	2
11	67250	369.003390009379	1
11	67287	369.125987242934	2
11	67297	369.126352576267	1
11	67333	369.259353654925	2
11	67343	369.259376321592	1
11	67506	369.986701950448	2
11	67516	369.987067283781	1
11	67711	371.101312953447	2
11	67721	371.10167828678	1
11	67839	371.593754329824	2
11	67849	371.594119663157	1
11	68037	372.635598794645	2
11	68047	372.635964127978	1
11	68632	376.214100520482	2
11	68642	376.214465853815	1
11	68809	377.157112418208	2
11	68819	377.157135084875	1
11	68881	377.31456905096	2
11	68891	377.314934384293	1
11	69028	378.470043779707	2
11	69038	378.47040911304	1
11	69223	379.515869072493	2
11	69233	379.516234405826	1
11	69410	381.080525623191	2
11	69420	381.080890956524	1
11	69457	381.182827404201	2
11	69467	381.183192737534	1
11	69653	381.766287576506	2
11	69663	381.766652909839	1
11	69861	382.950315312853	2
11	69871	382.950680646186	1
11	69958	383.568367689993	2
11	69968	383.568733023326	1
11	70223	385.321815808269	2
11	70233	385.322181141602	1
11	70350	386.298107831238	2
11	70360	386.298473164571	1
11	70416	386.56377335079	2
11	70426	386.563796017457	1
11	70892	388.478128278394	2
11	70902	388.478493611727	1
11	71139	390.532180762258	2
11	71149	390.532546095591	1
11	71246	391.230784329204	2
11	71256	391.231149662537	1
11	71623	393.786302045868	2
11	71633	393.786667379201	1
11	72064	396.35423467457	2
11	72074	396.354600007903	1
11	72145	396.398161908697	2
11	72155	396.39852724203	1
11	72193	396.434860978978	2
11	72203	396.435226312311	1
11	72250	396.626956555127	2
11	72260	396.62732188846	1
11	72337	397.119835323494	2
11	72347	397.120200656827	1
11	72773	400.159366913628	2
11	72783	400.159732246961	1
11	72830	400.334277173724	2
11	72840	400.334642507057	1
11	72866	400.364841979463	2
11	72876	400.36486464613	1
11	73189	402.508510080858	2
11	73199	402.508875414191	1
11	73609	404.893125424089	2
11	73619	404.893490757422	1
11	73696	405.302042953336	2
11	73706	405.302408286669	1
11	73922	406.284281137745	2
11	73932	406.284646471078	1
11	74260	408.703332531904	2
11	74270	408.703697865237	1
11	74297	408.743754109557	2
11	74307	408.74411944289	1
11	74392	408.805570258205	2
11	74402	408.805935591538	1
11	74489	409.449295064057	2
11	74499	409.44966039739	1
11	74546	409.653080446266	2
11	74556	409.653445779599	1
11	74694	410.223586434341	2
11	74704	410.223951767674	1
11	74940	411.340105007899	2
11	74950	411.340470341232	1
11	74975	411.344209252857	2
11	74985	411.344231919524	1
11	75119	411.703152162293	2
11	75129	411.703517495626	1
11	75246	412.152865530239	2
11	75256	412.153230863572	1
11	75392	413.200057785731	2
11	75402	413.200423119064	1
11	75427	413.205260918538	2
11	75437	413.205626251871	1
11	75952	416.719239741489	2
11	75962	416.719605074822	1
11	76098	417.859764216453	2
11	76108	417.860129549786	1
11	76144	417.925057812099	2
11	76154	417.925423145432	1
11	76270	418.859638228448	2
11	76280	418.860003561781	1
11	76424	419.509048955242	2
11	76434	419.509414288575	1
11	76459	419.549862470012	2
11	76469	419.549885136679	1
11	76608	420.51161136357	2
11	76618	420.511976696903	1
11	76810	421.234213601105	2
11	76820	421.234578934438	1
11	76906	421.843975773963	2
11	76916	421.844341107296	1
11	76982	422.255676351836	2
11	76992	422.256041685169	1
11	77572	425.778827693065	2
11	77582	425.779193026398	1
11	77647	426.199495365465	2
11	77657	426.199860698798	1
11	77858	426.933995222207	2
11	77868	426.934017888874	1
11	77914	427.09360125359	2
11	77924	427.093966586923	1
11	77959	427.131890051362	2
11	77969	427.132255384695	1
11	78663	431.30733365559	2
11	78673	431.307698988923	1
11	78910	432.984268388582	2
11	78920	432.984633721915	1
11	79087	433.814529035349	2
11	79097	433.814894368682	1
11	79263	435.260836607505	2
11	79273	435.261201940838	1
11	79368	435.961662791669	2
11	79378	435.961685458336	1
11	79467	436.458987995349	2
11	79477	436.459353328682	1
11	79564	436.54460878946	2
11	79574	436.544974122793	1
11	79610	436.609292394605	2
11	79620	436.609657727938	1
11	79666	436.886234619933	2
11	79676	436.886599953266	1
11	79762	437.452364171629	2
11	79772	437.452729504962	1
11	79919	438.190500914177	2
11	79929	438.19086624751	1
11	79972	438.388232682118	2
11	79982	438.388598015451	1
11	80113	438.956120375237	2
11	80123	438.95648570857	1
11	80156	439.069293707629	2
11	80166	439.069659040962	1
11	80378	439.96014750952	2
11	80388	439.960512842853	1
11	80703	441.845012123725	2
11	80713	441.845377457058	1
11	80997	443.683956435416	2
11	81007	443.683979102083	1
11	81366	445.944946416395	2
11	81376	445.945311749728	1
11	81453	446.104890629748	2
11	81463	446.105255963081	1
11	81732	447.259865163316	2
11	81742	447.260230496649	1
11	81999	449.240820459439	2
11	82009	449.241185792772	1
11	82075	449.343138939012	2
11	82085	449.343504272345	1
11	82211	450.031849782968	2
11	82221	450.032215116301	1
11	82367	450.901929693335	2
11	82377	450.902295026668	1
11	82453	451.178417377436	2
11	82463	451.178782710769	1
11	82539	451.363573430922	2
11	82549	451.363938764255	1
11	82824	452.681973341387	2
11	82834	452.681996008054	1
11	82940	453.326696720479	2
11	82950	453.327062053812	1
11	83208	453.967612143675	2
11	83218	453.967977477008	1
11	83775	457.877752913329	2
11	83785	457.878118246662	1
11	83872	457.91821086899	2
11	83882	457.918576202323	1
11	83940	458.234638260178	2
11	83950	458.235003593511	1
11	84027	458.751805187249	2
11	84037	458.752170520582	1
11	84165	459.262317763185	2
11	84175	459.262683096518	1
11	84212	459.394529363014	2
11	84222	459.394894696347	1
11	84396	460.393107277341	2
11	84406	460.393129944008	1
11	84548	461.337729919341	2
11	84558	461.338095252674	1
11	84635	461.818021733149	2
11	84645	461.818387066482	1
11	84672	461.840240385168	2
11	84682	461.840605718501	1
11	84759	462.309848417297	2
11	84769	462.31021375063	1
11	84947	463.39339660559	2
11	84957	463.393761938923	1
11	85368	465.121655978558	2
11	85378	465.122021311891	1
11	85523	465.891517914372	2
11	85533	465.891883247705	1
11	85785	467.683172250259	2
11	85795	467.683537583592	1
11	85882	468.202994195139	2
11	85892	468.203359528472	1
11	85949	468.59019166238	2
11	85959	468.590556995713	1
11	85996	468.620599656144	2
11	86006	468.620964989477	1
11	86153	469.389780999627	2
11	86163	469.389803666294	1
11	86265	469.957168073467	2
11	86275	469.9575334068	1
11	86440	470.889354814033	2
11	86450	470.889720147366	1
11	86638	471.985004684282	2
11	86648	471.985370017615	1
11	87040	475.182663441688	2
11	87050	475.183028775021	1
11	87208	475.487625608221	2
11	87218	475.487648274888	1
11	87401	476.328741476752	2
11	87411	476.329106810085	1
11	87906	479.09684153444	2
11	87916	479.097206867773	1
11	88112	480.779528014828	2
11	88122	480.779550681495	1
11	88586	483.934428983501	2
11	88596	483.934794316834	1
11	88693	484.664551003757	2
11	88703	484.66491633709	1
11	88971	486.514640223628	2
11	88981	486.515005556961	1
11	89107	487.518164611527	2
11	89117	487.51852994486	1
11	89152	487.685197193642	2
11	89162	487.685219860309	1
11	89323	487.885432779025	2
11	89333	487.885798112358	1
11	89389	488.135686059428	2
11	89399	488.136051392761	1
11	89435	488.241062200058	2
[...]
128	91769	387.8	0
128	91769	387.9	0
128	91769	388	0
128	91769	388.1	0
128	91769	388.2	0
128	91769	388.3	0
128	91769	388.4	0
128	91769	388.5	0
128	91769	388.6	0
128	91769	388.7	0
128	91769	388.8	0
128	91769	388.9	0
128	91769	389	0
128	91769	389.1	0
128	91769	389.2	0
128	91769	389.3	0
128	91769	389.4	0
128	91769	389.5	0
128	91769	389.6	0
128	91769	389.7	0
128	91769	389.8	0
128	91769	389.9	0
128	91769	390	0
128	91769	390.1	0
128	91769	390.2	0
128	91769	390.3	0
128	91769	390.4	0
128	91769	390.5	0
128	91769	390.6	0
128	91769	390.7	0
128	91769	390.8	0
128	91769	390.9	0
128	91769	391	0
128	91769	391.1	0
128	91769	391.2	0
128	91769	391.3	0
128	91769	391.4	0
128	91769	391.5	0
128	91769	391.6	0
128	91769	391.7	0
128	91769	391.8	0
128	91769	391.9	0
128	91769	392	0
128	91769	392.1	0
128	91769	392.2	0
128	91769	392.3	0
128	91769	392.4	0
128	91769	392.5	0
128	91769	392.6	0
128	91769	392.7	0
128	91769	392.8	0
128	91769	392.9	0
128	91769	393	0
128	91769	393.1	0
128	91769	393.2	0
128	91769	393.3	0
128	91769	393.4	0
128	91769	393.5	0
128	91769	393.6	0
128	91769	393.7	0
128	91769	393.8	0
128	91769	393.9	0
128	91769	394	0
128	91769	394.1	0
128	91769	394.2	0
128	91769	394.3	0
128	91769	394.4	0
128	91769	394.5	0
128	91769	394.6	0
128	91769	394.7	0
128	91769	394.8	0
128	91769	394.9	0
128	91769	395	0
128	91769	395.1	0
128	91769	395.2	0
128	91769	395.3	0
128	91769	395.4	0
128	91769	395.5	0
128	91769	395.6	0
128	91769	395.7	0
128	91769	395.8	0
128	91769	395.9	0
128	91769	396	0
128	91769	396.1	0
128	91769	396.2	0
128	91769	396.3	0
128	91769	396.4	0
128	91769	396.5	0
128	91769	396.6	0
128	91769	396.7	0
128	91769	396.8	0
128	91769	396.9	0
128	91769	397	0
128	91769	397.1	0
128	91769	397.2	0
128	91769	397.3	0
128	91769	397.4	0
128	91769	397.5	0
128	91769	397.6	0
128	91769	397.7	0
128	91769	397.8	0
128	91769	397.9	0
128	91769	398	0
128	91769	398.1	0
128	91769	398.2	0
128	91769	398.3	0
128	91769	398.4	0
128	91769	398.5	0
128	91769	398.6	0
128	91769	398.7	0
128	91769	398.8	0
128	91769	398.9	0
128	91769	399	0
128	91769	399.1	0
128	91769	399.2	0
128	91769	399.3	0
128	91769	399.4	0
128	91769	399.5	0
128	91769	399.6	0
128	91769	399.7	0
128	91769	399.8	0
128	91769	399.9	0
128	91769	400	0
128	91769	400.1	0
128	91769	400.2	0
128	91769	400.3	0
128	91769	400.4	0
128	91769	400.5	0
128	91769	400.6	0
128	91769	400.7	0
128	91769	400.8	0
128	91769	400.9	0
128	91769	401	0
128	91769	401.1	0
128	91769	401.2	0
128	91769	401.3	0
128	91769	401.4	0
128	91769	401.5	0
128	91769	401.6	0
128	91769	401.7	0
128	91769	401.8	0
128	91769	401.9	0
128	91769	402	0
128	91769	402.1	0
128	91769	402.2	0
128	91769	402.3	0
128	91769	402.4	0
128	91769	402.5	0
128	91769	402.6	0
128	91769	402.7	0
128	91769	402.8	0
128	91769	402.9	0
128	91769	403	0
128	91769	403.1	0
128	91769	403.2	0
128	91769	403.3	0
128	91769	403.4	0
128	91769	403.5	0
128	91769	403.6	0
128	91769	403.7	0
128	91769	403.8	0
128	91769	403.9	0
128	91769	404	0
128	91769	404.1	0
128	91769	404.2	0
128	91769	404.3	0
128	91769	404.4	0
128	91769	404.5	0
128	91769	404.6	0
128	91769	404.7	0
128	91769	404.8	0
128	91769	404.9	0
128	91769	405	0
128	91769	405.1	0
128	91769	405.2	0
128	91769	405.3	0
128	91769	405.4	0
128	91769	405.5	0
128	91769	405.6	0
128	91769	405.7	0
128	91769	405.8	0
128	91769	405.9	0
128	91769	406	0
128	91769	406.1	0
128	91769	406.2	0
128	91769	406.3	0
128	91769	406.4	0
128	91769	406.5	0
128	91769	406.6	0
128	91769	406.7	0
128	91769	406.8	0
128	91769	406.9	0
128	91769	407	0
128	91769	407.1	0
128	91769	407.2	0
128	91769	407.3	0
128	91769	407.4	0
128	91769	407.5	0
128	91769	407.6	0
128	91769	407.7	0
128	91769	407.8	0
128	91769	407.9	0
128	91769	408	0
128	91769	408.1	0
128	91769	408.2	0
128	91769	408.3	0
128	91769	408.4	0
128	91769	408.5	0
128	91769	408.6	0
128	91769	408.7	0
128	91769	408.8	0
128	91769	408.9	0
128	91769	409	0
128	91769	409.1	0
128	91769	409.2	0
128	91769	409.3	0
128	91769	409.4	0
128	91769	409.5	0
128	91769	409.6	0
128	91769	409.7	0
128	91769	409.8	0
128	91769	409.9	0
128	91769	410	0
128	91769	410.1	0
128	91769	410.2	0
128	91769	410.3	0
128	91769	410.4	0
128	91769	410.5	0
128	91769	410.6	0
128	91769	410.7	0
128	91769	410.8	0
128	91769	410.9	0
128	91769	411	0
128	91769	411.1	0
128	91769	411.2	0
128	91769	411.3	0
128	91769	411.4	0
128	91769	411.5	0
128	91769	411.6	0
128	91769	411.7	0
128	91769	411.8	0
128	91769	411.9	0
128	91769	412	0
128	91769	412.1	0
128	91769	412.2	0
128	91769	412.3	0
128	91769	412.4	0
128	91769	412.5	0
128	91769	412.6	0
128	91769	412.7	0
128	91769	412.8	0
128	91769	412.9	0
128	91769	413	0
128	91769	413.1	0
128	91769	413.2	0
128	91769	413.3	0
128	91769	413.4	0
128	91769	413.5	0
128	91769	413.6	0
128	91769	413.7	0
128	91769	413.8	0
128	91769	413.9	0
128	91769	414	0
128	91769	414.1	0
128	91769	414.2	0
128	91769	414.3	0
128	91769	414.4	0
128	91769	414.5	0
128	91769	414.6	0
128	91769	414.7	0
128	91769	414.8	0
128	91769	414.9	0
128	91769	415	0
128	91769	415.1	0
128	91769	415.2	0
128	91769	415.3	0
128	91769	415.4	0
128	91769	415.5	0
128	91769	415.6	0
128	91769	415.7	0
128	91769	415.8	0
128	91769	415.9	0
128	91769	416	0
128	91769	416.1	0
128	91769	416.2	0
128	91769	416.3	0
128	91769	416.4	0
128	91769	416.5	0
128	91769	416.6	0
128	91769	416.7	0
128	91769	416.8	0
128	91769	416.9	0
128	91769	417	0
128	91769	417.1	0
128	91769	417.2	0
128	91769	417.3	0
128	91769	417.4	0
128	91769	417.5	0
128	91769	417.6	0
128	91769	417.7	0
128	91769	417.8	0
128	91769	417.9	0
128	91769	418	0
128	91769	418.1	0
128	91769	418.2	0
128	91769	418.3	0
128	91769	418.4	0
128	91769	418.5	0
128	91769	418.6	0
128	91769	418.7	0
128	91769	418.8	0
128	91769	418.9	0
128	91769	419	0
128	91769	419.1	0
128	91769	419.2	0
128	91769	419.3	0
128	91769	419.4	0
128	91769	419.5	0
128	91769	419.6	0
128	91769	419.7	0
128	91769	419.8	0
128	91769	419.9	0
128	91769	420	0
128	91769	420.1	0
128	91769	420.2	0
128	91769	420.3	0
128	91769	420.4	0
128	91769	420.5	0
128	91769	420.6	0
128	91769	420.7	0
128	91769	420.8	0
128	91769	420.9	0
128	91769	421	0
128	91769	421.1	0
128	91769	421.2	0
128	91769	421.3	0
128	91769	421.4	0
128	91769	421.5	0
128	91769	421.6	0
128	91769	421.7	0
128	91769	421.8	0
128	91769	421.9	0
128	91769	422	0
128	91769	422.1	0
128	91769	422.2	0
128	91769	422.3	0
128	91769	422.4	0
128	91769	422.5	0
128	91769	422.6	0
128	91769	422.7	0
128	91769	422.8	0
128	91769	422.9	0
128	91769	423	0
128	91769	423.1	0
128	91769	423.2	0
128	91769	423.3	0
128	91769	423.4	0
128	91769	423.5	0
128	91769	423.6	0
128	91769	423.7	0
128	91769	423.8	0
128	91769	423.9	0
128	91769	424	0
128	91769	424.1	0
128	91769	424.2	0
128	91769	424.3	0
128	91769	424.4	0
128	91769	424.5	0
128	91769	424.6	0
128	91769	424.7	0
128	91769	424.8	0
128	91769	424.9	0
128	91769	425	0
128	91769	425.1	0
128	91769	425.2	0
128	91769	425.3	0
128	91769	425.4	0
128	91769	425.5	0
128	91769	425.6	0
128	91769	425.7	0
128	91769	425.8	0
128	91769	425.9	0
128	91769	426	0
128	91769	426.1	0
128	91769	426.2	0
128	91769	426.3	0
128	91769	426.4	0
128	91769	426.5	0
128	91769	426.6	0
128	91769	426.7	0
128	91769	426.8	0
128	91769	426.9	0
128	91769	427	0
128	91769	427.1	0
128	91769	427.2	0
128	91769	427.3	0
128	91769	427.4	0
128	91769	427.5	0
128	91769	427.6	0
128	91769	427.7	0
128	91769	427.8	0
128	91769	427.9	0
128	91769	428	0
128	91769	428.1	0
128	91769	428.2	0
128	91769	428.3	0
128	91769	428.4	0
128	91769	428.5	0
128	91769	428.6	0
128	91769	428.7	0
128	91769	428.8	0
128	91769	428.9	0
128	91769	429	0
128	91769	429.1	0
128	91769	429.2	0
128	91769	429.3	0
128	91769	429.4	0
128	91769	429.5	0
128	91769	429.6	0
128	91769	429.7	0
128	91769	429.8	0
128	91769	429.9	0
128	91769	430	0
128	91769	430.1	0
128	91769	430.2	0
128	91769	430.3	0
128	91769	430.4	0
128	91769	430.5	0
128	91769	430.6	0
128	91769	430.7	0
128	91769	430.8	0
128	91769	430.9	0
128	91769	431	0
128	91769	431.1	0
128	91769	431.2	0
128	91769	431.3	0
128	91769	431.4	0
128	91769	431.5	0
128	91769	431.6	0
128	91769	431.7	0
128	91769	431.8	0
128	91769	431.9	0
128	91769	432	0
128	91769	432.1	0
128	91769	432.2	0
128	91769	432.3	0
128	91769	432.4	0
128	91769	432.5	0
128	91769	432.6	0
128	91769	432.7	0
128	91769	432.8	0
128	91769	432.9	0
128	91769	433	0
128	91769	433.1	0
128	91769	433.2	0
128	91769	433.3	0
128	91769	433.4	0
128	91769	433.5	0
128	91769	433.6	0
128	91769	433.7	0
128	91769	433.8	0
128	91769	433.9	0
128	91769	434	0
128	91769	434.1	0
128	91769	434.2	0
128	91769	434.3	0
128	91769	434.4	0
128	91769	434.5	0
128	91769	434.6	0
128	91769	434.7	0
128	91769	434.8	0
128	91769	434.9	0
128	91769	435	0
128	91769	435.1	0
128	91769	435.2	0
128	91769	435.3	0
128	91769	435.4	0
128	91769	435.5	0
128	91769	435.6	0
128	91769	435.7	0
128	91769	435.8	0
128	91769	435.9	0
128	91769	436	0
128	91769	436.1	0
128	91769	436.2	0
128	91769	436.3	0
128	91769	436.4	0
128	91769	436.5	0
128	91769	436.6	0
128	91769	436.7	0
128	91769	436.8	0
128	91769	436.9	0
128	91769	437	0
128	91769	437.1	0
128	91769	437.2	0
128	91769	437.3	0
128	91769	437.4	0
128	91769	437.5	0
128	91769	437.6	0
128	91769	437.7	0
128	91769	437.8	0
128	91769	437.9	0
128	91769	438	0
128	91769	438.1	0
128	91769	438.2	0
128	91769	438.3	0
128	91769	438.4	0
128	91769	438.5	0
128	91769	438.6	0
128	91769	438.7	0
128	91769	438.8	0
128	91769	438.9	0
128	91769	439	0
128	91769	439.1	0
128	91769	439.2	0
128	91769	439.3	0
128	91769	439.4	0
128	91769	439.5	0
128	91769	439.6	0
128	91769	439.7	0
128	91769	439.8	0
128	91769	439.9	0
128	91769	440	0
128	91769	440.1	0
128	91769	440.2	0
128	91769	440.3	0
128	91769	440.4	0
128	91769	440.5	0
128	91769	440.6	0
128	91769	440.7	0
128	91769	440.8	0
128	91769	440.9	0
128	91769	441	0
128	91769	441.1	0
128	91769	441.2	0
128	91769	441.3	0
128	91769	441.4	0
128	91769	441.5	0
128	91769	441.6	0
128	91769	441.7	0
128	91769	441.8	0
128	91769	441.9	0
128	91769	442	0
128	91769	442.1	0
128	91769	442.2	0
128	91769	442.3	0
128	91769	442.4	0
128	91769	442.5	0
128	91769	442.6	0
128	91769	442.7	0
128	91769	442.8	0
128	91769	442.9	0
128	91769	443	0
128	91769	443.1	0
128	91769	443.2	0
128	91769	443.3	0
128	91769	443.4	0
128	91769	443.5	0
128	91769	443.6	0
128	91769	443.7	0
128	91769	443.8	0
128	91769	443.9	0
128	91769	444	0
128	91769	444.1	0
128	91769	444.2	0
128	91769	444.3	0
128	91769	444.4	0
128	91769	444.5	0
128	91769	444.6	0
128	91769	444.7	0
128	91769	444.8	0
128	91769	444.9	0
128	91769	445	0
128	91769	445.1	0
128	91769	445.2	0
128	91769	445.3	0
128	91769	445.4	0
128	91769	445.5	0
128	91769	445.6	0
128	91769	445.7	0
128	91769	445.8	0
128	91769	445.9	0
128	91769	446	0
128	91769	446.1	0
128	91769	446.2	0
128	91769	446.3	0
128	91769	446.4	0
128	91769	446.5	0
128	91769	446.6	0
128	91769	446.7	0
128	91769	446.8	0
128	91769	446.9	0
128	91769	447	0
128	91769	447.1	0
128	91769	447.2	0
128	91769	447.3	0
128	91769	447.4	0
128	91769	447.5	0
128	91769	447.6	0
128	91769	447.7	0
128	91769	447.8	0
128	91769	447.9	0
128	91769	448	0
128	91769	448.1	0
128	91769	448.2	0
128	91769	448.3	0
128	91769	448.4	0
128	91769	448.5	0
128	91769	448.6	0
128	91769	448.7	0
128	91769	448.8	0
128	91769	448.9	0
128	91769	449	0
128	91769	449.1	0
128	91769	449.2	0
128	91769	449.3	0
128	91769	449.4	0
128	91769	449.5	0
128	91769	449.6	0
128	91769	449.7	0
128	91769	449.8	0
128	91769	449.9	0
128	91769	450	0
128	91769	450.1	0
128	91769	450.2	0
128	91769	450.3	0
128	91769	450.4	0
128	91769	450.5	0
128	91769	450.6	0
128	91769	450.7	0
128	91769	450.8	0
128	91769	450.9	0
128	91769	451	0
128	91769	451.1	0
128	91769	451.2	0
128	91769	451.3	0
128	91769	451.4	0
128	91769	451.5	0
128	91769	451.6	0
128	91769	451.7	0
128	91769	451.8	0
128	91769	451.9	0
128	91769	452	0
128	91769	452.1	0
128	91769	452.2	0
128	91769	452.3	0
128	91769	452.4	0
128	91769	452.5	0
128	91769	452.6	0
128	91769	452.7	0
128	91769	452.8	0
128	91769	452.9	0
128	91769	453	0
128	91769	453.1	0
128	91769	453.2	0
128	91769	453.3	0
128	91769	453.4	0
128	91769	453.5	0
128	91769	453.6	0
128	91769	453.7	0
128	91769	453.8	0
128	91769	453.9	0
128	91769	454	0
128	91769	454.1	0
128	91769	454.2	0
128	91769	454.3	0
128	91769	454.4	0
128	91769	454.5	0
128	91769	454.6	0
128	91769	454.7	0
128	91769	454.8	0
128	91769	454.9	0
128	91769	455	0
128	91769	455.1	0
128	91769	455.2	0
128	91769	455.3	0
128	91769	455.4	0
128	91769	455.5	0
128	91769	455.6	0
128	91769	455.7	0
128	91769	455.8	0
128	91769	455.9	0
128	91769	456	0
128	91769	456.1	0
128	91769	456.2	0
128	91769	456.3	0
128	91769	456.4	0
128	91769	456.5	0
128	91769	456.6	0
128	91769	456.7	0
128	91769	456.8	0
128	91769	456.9	0
128	91769	457	0
128	91769	457.1	0
128	91769	457.2	0
128	91769	457.3	0
128	91769	457.4	0
128	91769	457.5	0
128	91769	457.6	0
128	91769	457.7	0
128	91769	457.8	0
128	91769	457.9	0
128	91769	458	0
128	91769	458.1	0
128	91769	458.2	0
128	91769	458.3	0
128	91769	458.4	0
128	91769	458.5	0
128	91769	458.6	0
128	91769	458.7	0
128	91769	458.8	0
128	91769	458.9	0
128	91769	459	0
128	91769	459.1	0
128	91769	459.2	0
128	91769	459.3	0
128	91769	459.4	0
128	91769	459.5	0
128	91769	459.6	0
128	91769	459.7	0
128	91769	459.8	0
128	91769	459.9	0
128	91769	460	0
128	91769	460.1	0
128	91769	460.2	0
128	91769	460.3	0
128	91769	460.4	0
128	91769	460.5	0
128	91769	460.6	0
128	91769	460.7	0
128	91769	460.8	0
128	91769	460.9	0
128	91769	461	0
128	91769	461.1	0
128	91769	461.2	0
128	91769	461.3	0
128	91769	461.4	0
128	91769	461.5	0
128	91769	461.6	0
128	91769	461.7	0
128	91769	461.8	0
128	91769	461.9	0
128	91769	462	0
128	91769	462.1	0
128	91769	462.2	0
128	91769	462.3	0
128	91769	462.4	0
128	91769	462.5	0
128	91769	462.6	0
128	91769	462.7	0
128	91769	462.8	0
128	91769	462.9	0
128	91769	463	0
128	91769	463.1	0
128	91769	463.2	0
128	91769	463.3	0
128	91769	463.4	0
128	91769	463.5	0
128	91769	463.6	0
128	91769	463.7	0
128	91769	463.8	0
128	91769	463.9	0
128	91769	464	0
128	91769	464.1	0
128	91769	464.2	0
128	91769	464.3	0
128	91769	464.4	0
128	91769	464.5	0
128	91769	464.6	0
128	91769	464.7	0
128	91769	464.8	0
128	91769	464.9	0
128	91769	465	0
128	91769	465.1	0
128	91769	465.2	0
128	91769	465.3	0
128	91769	465.4	0
128	91769	465.5	0
128	91769	465.6	0
128	91769	465.7	0
128	91769	465.8	0
128	91769	465.9	0
128	91769	466	0
128	91769	466.1	0
128	91769	466.2	0
128	91769	466.3	0
128	91769	466.4	0
128	91769	466.5	0
128	91769	466.6	0
128	91769	466.7	0
128	91769	466.8	0
128	91769	466.9	0
128	91769	467	0
128	91769	467.1	0
128	91769	467.2	0
128	91769	467.3	0
128	91769	467.4	0
128	91769	467.5	0
128	91769	467.6	0
128	91769	467.7	0
128	91769	467.8	0
128	91769	467.9	0
128	91769	468	0
128	91769	468.1	0
128	91769	468.2	0
128	91769	468.3	0
128	91769	468.4	0
128	91769	468.5	0
128	91769	468.6	0
128	91769	468.7	0
128	91769	468.8	0
128	91769	468.9	0
128	91769	469	0
128	91769	469.1	0
128	91769	469.2	0
128	91769	469.3	0
128	91769	469.4	0
128	91769	469.5	0
128	91769	469.6	0
128	91769	469.7	0
128	91769	469.8	0
128	91769	469.9	0
128	91769	470	0
128	91769	470.1	0
128	91769	470.2	0
128	91769	470.3	0
128	91769	470.4	0
128	91769	470.5	0
128	91769	470.6	0
128	91769	470.7	0
128	91769	470.8	0
128	91769	470.9	0
128	91769	471	0
128	91769	471.1	0
128	91769	471.2	0
128	91769	471.3	0
128	91769	471.4	0
128	91769	471.5	0
128	91769	471.6	0
128	91769	471.7	0
128	91769	471.8	0
128	91769	471.9	0
128	91769	472	0
128	91769	472.1	0
128	91769	472.2	0
128	91769	472.3	0
128	91769	472.4	0
128	91769	472.5	0
128	91769	472.6	0
128	91769	472.7	0
128	91769	472.8	0
128	91769	472.9	0
128	91769	473	0
128	91769	473.1	0
128	91769	473.2	0
128	91769	473.3	0
128	91769	473.4	0
128	91769	473.5	0
128	91769	473.6	0
128	91769	473.7	0
128	91769	473.8	0
128	91769	473.9	0
128	91769	474	0
128	91769	474.1	0
128	91769	474.2	0
128	91769	474.3	0
128	91769	474.4	0
128	91769	474.5	0
128	91769	474.6	0
128	91769	474.7	0
128	91769	474.8	0
128	91769	474.9	0
128	91769	475	0
128	91769	475.1	0
128	91769	475.2	0
128	91769	475.3	0
128	91769	475.4	0
128	91769	475.5	0
128	91769	475.6	0
128	91769	475.7	0
128	91769	475.8	0
128	91769	475.9	0
128	91769	476	0
128	91769	476.1	0
128	91769	476.2	0
128	91769	476.3	0
128	91769	476.4	0
128	91769	476.5	0
128	91769	476.6	0
128	91769	476.7	0
128	91769	476.8	0
128	91769	476.9	0
128	91769	477	0
128	91769	477.1	0
128	91769	477.2	0
128	91769	477.3	0
128	91769	477.4	0
128	91769	477.5	0
128	91769	477.6	0
128	91769	477.7	0
128	91769	477.8	0
128	91769	477.9	0
128	91769	478	0
128	91769	478.1	0
128	91769	478.2	0
128	91769	478.3	0
128	91769	478.4	0
128	91769	478.5	0
128	91769	478.6	0
128	91769	478.7	0
128	91769	478.8	0
128	91769	478.9	0
128	91769	479	0
128	91769	479.1	0
128	91769	479.2	0
128	91769	479.3	0
128	91769	479.4	0
128	91769	479.5	0
128	91769	479.6	0
128	91769	479.7	0
128	91769	479.8	0
128	91769	479.9	0
128	91769	480	0
128	91769	480.1	0
128	91769	480.2	0
128	91769	480.3	0
128	91769	480.4	0
128	91769	480.5	0
128	91769	480.6	0
128	91769	480.7	0
128	91769	480.8	0
128	91769	480.9	0
128	91769	481	0
128	91769	481.1	0
128	91769	481.2	0
128	91769	481.3	0
128	91769	481.4	0
128	91769	481.5	0
128	91769	481.6	0
128	91769	481.7	0
128	91769	481.8	0
128	91769	481.9	0
128	91769	482	0
128	91769	482.1	0
128	91769	482.2	0
128	91769	482.3	0
128	91769	482.4	0
128	91769	482.5	0
128	91769	482.6	0
128	91769	482.7	0
128	91769	482.8	0
128	91769	482.9	0
128	91769	483	0
128	91769	483.1	0
128	91769	483.2	0
128	91769	483.3	0
128	91769	483.4	0
128	91769	483.5	0
128	91769	483.6	0
128	91769	483.7	0
128	91769	483.8	0
128	91769	483.9	0
128	91769	484	0
128	91769	484.1	0
128	91769	484.2	0
128	91769	484.3	0
128	91769	484.4	0
128	91769	484.5	0
128	91769	484.6	0
128	91769	484.7	0
128	91769	484.8	0
128	91769	484.9	0
128	91769	485	0
128	91769	485.1	0
128	91769	485.2	0
128	91769	485.3	0
128	91769	485.4	0
128	91769	485.5	0
128	91769	485.6	0
128	91769	485.7	0
128	91769	485.8	0
128	91769	485.9	0
128	91769	486	0
128	91769	486.1	0
128	91769	486.2	0
128	91769	486.3	0
128	91769	486.4	0
128	91769	486.5	0
128	91769	486.6	0
128	91769	486.7	0
128	91769	486.8	0
128	91769	486.9	0
128	91769	487	0
128	91769	487.1	0
128	91769	487.2	0
128	91769	487.3	0
128	91769	487.4	0
128	91769	487.5	0
128	91769	487.6	0
128	91769	487.7	0
128	91769	487.8	0
128	91769	487.9	0
128	91769	488	0
128	91769	488.1	0
128	91769	488.2	0
128	91769	488.3	0
128	91769	488.4	0
128	91769	488.5	0
128	91769	488.6	0
128	91769	488.7	0
128	91769	488.8	0
128	91769	488.9	0
128	91769	489	0
128	91769	489.1	0
128	91769	489.2	0
128	91769	489.3	0
128	91769	489.4	0
128	91769	489.5	0
128	91769	489.6	0
128	91769	489.7	0
128	91769	489.8	0
128	91769	489.9	0
128	91769	490	0
128	91769	490.1	0
128	91769	490.2	0
128	91769	490.3	0
128	91769	490.4	0
128	91769	490.5	0
128	91769	490.6	0
128	91769	490.7	0
128	91769	490.8	0
128	91769	490.9	0
128	91769	491	0
128	91769	491.1	0
128	91769	491.2	0
128	91769	491.3	0
128	91769	491.4	0
128	91769	491.5	0
128	91769	491.6	0
128	91769	491.7	0
128	91769	491.8	0
128	91769	491.9	0
128	91769	492	0
128	91769	492.1	0
128	91769	492.2	0
128	91769	492.3	0
128	91769	492.4	0
128	91769	492.5	0
128	91769	492.6	0
128	91769	492.7	0
128	91769	492.8	0
128	91769	492.9	0
128	91769	493	0
128	91769	493.1	0
128	91769	493.2	0
128	91769	493.3	0
128	91769	493.4	0
128	91769	493.5	0
128	91769	493.6	0
128	91769	493.7	0
128	91769	493.8	0
128	91769	493.9	0
128	91769	494	0
128	91769	494.1	0
128	91769	494.2	0
128	91769	494.3	0
128	91769	494.4	0
128	91769	494.5	0
128	91769	494.6	0
128	91769	494.7	0
128	91769	494.8	0
128	91769	494.9	0
128	91769	495	0
128	91769	495.1	0
128	91769	495.2	0
128	91769	495.3	0
128	91769	495.4	0
128	91769	495.5	0
128	91769	495.6	0
128	91769	495.7	0
128	91769	495.8	0
128	91769	495.9	0
128	91769	496	0
128	91769	496.1	0
128	91769	496.2	0
128	91769	496.3	0
128	91769	496.4	0
128	91769	496.5	0
128	91769	496.6	0
128	91769	496.7	0
128	91769	496.8	0
128	91769	496.9	0
128	91769	497	0
128	91769	497.1	0
128	91769	497.2	0
128	91769	497.3	0
128	91769	497.4	0
128	91769	497.5	0
128	91769	497.6	0
128	91769	497.7	0
128	91769	497.8	0
128	91769	497.9	0
128	91769	498	0
128	91769	498.1	0
128	91769	498.2	0
128	91769	498.3	0
128	91769	498.4	0
128	91769	498.5	0
128	91769	498.6	0
128	91769	498.7	0
128	91769	498.8	0
128	91769	498.9	0
128	91769	499	0
128	91769	499.1	0
128	91769	499.2	0
128	91769	499.3	0
128	91769	499.4	0
128	91769	499.5	0
128	91769	499.6	0
128	91769	499.7	0
128	91769	499.8	0
128	91769	499.9	0
128	91769	500	0

