version 2
run FanetGrayHole-0-20220617-20:28:16-24359
attr configname FanetGrayHole
attr datetime 20220617-20:28:16
attr experiment FanetGrayHole
attr inifile omnetpp.ini
attr iterationvars ""
attr iterationvarsf ""
attr measurement ""
attr network FanetGrayHole
attr processid 24359
attr repetition 0
attr replication #0
attr resultdir results
attr runnumber 0
attr seedset 0
param *.host[0].numApps 1
param *.host[0].app[0].typename "\"UdpBasicApp\""
param *.host[0].app[0].startTime 11s
param *.host[0].app[0].destAddresses "\"host[1]\""
param *.host[0].app[0].destPort 5000
param *.host[0].app[0].messageLength 1000B
param *.host[0].app[0].sendInterval exponential(1s)
param *.host[0].app[0].packetName "\"UDPdata\""
param *.host[1].numApps 1
param *.host[1].app[0].typename "\"UdpSink\""
param *.host[1].app[0].localPort 5000
param **.wlan[*].bitrate 24Mbps
param *.configurator.addStaticRoutes false
param **.netmaskRoutes "\"\""
param **.arp.typename "\"GlobalArp\""
param *.host*.wlan[0].typename "\"AckingWirelessInterface\""
param *.host*.wlan[0].radio.transmitter.communicationRange 300m
param *.host*.wlan[0].radio.displayCommunicationRange false
param *.visualizer.osgVisualizer.typename "\"IntegratedOsgVisualizer\""
param *.visualizer.osgVisualizer.sceneVisualizer.clearColor "\"skyblue\""
param *.visualizer.osgVisualizer.sceneVisualizer.sceneImage "\"showcases/desert\""
param *.visualizer.osgVisualizer.sceneVisualizer.sceneImageSize 5000m
param *.visualizer.osgVisualizer.sceneVisualizer.axisLength 1000m
param *.visualizer.osgVisualizer.sceneVisualizer.sceneMinX -2000m
param *.visualizer.osgVisualizer.sceneVisualizer.sceneMinY -2000m
param *.visualizer.osgVisualizer.sceneVisualizer.sceneMinZ 0m
param *.visualizer.osgVisualizer.sceneVisualizer.sceneMaxX 3000m
param *.visualizer.osgVisualizer.sceneVisualizer.sceneMaxY 3000m
param *.visualizer.osgVisualizer.sceneVisualizer.sceneMaxZ 1000m
param *.visualizer.osgVisualizer.networkNodeVisualizer.displayModuleName false
param *.visualizer.*.mobilityVisualizer.displayMobility true
param *.visualizer.*.mobilityVisualizer.displayPositions true
param *.visualizer.*.mobilityVisualizer.displayOrientations true
param *.visualizer.*.mobilityVisualizer.displayVelocities true
param *.visualizer.*.mobilityVisualizer.displayMovementTrails true
param *.visualizer.*.mobilityVisualizer.animationSpeed 1
param *.visualizer.*.packetDropVisualizer.displayPacketDrops false
param *.visualizer.*.packetDropVisualizer.labelFormat "\"%n/reason: %r\""
param *.visualizer.*.packetDropVisualizer.fadeOutTime 10s
param **.constraintAreaMinX 0m
param **.constraintAreaMinY 0m
param **.constraintAreaMinZ 50m
param **.constraintAreaMaxX 1500m
param **.constraintAreaMaxY 1000m
param **.constraintAreaMaxZ 300m
param *.visualizer.*.mediumVisualizer.signalPropagationAnimationSpeed 500/3e8
param *.visualizer.*.mediumVisualizer.signalTransmissionAnimationSpeed 50000/3e8
param *.visualizer.*.mediumVisualizer.displaySignals false
param *.visualizer.*.mediumVisualizer.displayTransmissions false
param *.visualizer.*.mediumVisualizer.displayReceptions false
param *.visualizer.*.mediumVisualizer.transmissionPlacementPriority 10
param *.visualizer.*.mediumVisualizer.receptionPlacementPriority 10
param *.visualizer.*.mediumVisualizer.displaySignals false
param *.visualizer.*.mediumVisualizer.signalFadingDistance 50m
param *.visualizer.*.mediumVisualizer.signalRingSize 50m
param *.visualizer.osgVisualizer.mediumVisualizer.signalShape "\"both\""
param *.host[*].osgModel "\"3d/drone.ive.100.scale.0,0,90.rot\""
param *.host[*].mobility.typename "\"MassMobility\""
param *.host[*].mobility.changeInterval 1s
param *.host[*].mobility.initialMovementHeading "uniform(0deg, 360deg)"
param *.host[*].mobility.initialMovementElevation "uniform(-90deg, 90deg)"
param *.host[*].mobility.angleDelta uniform(-10deg,10deg)
param *.host[*].mobility.rotationAxisAngle uniform(-10deg,10deg)
param *.host[*].mobility.speed uniform(10mps,20mps)
param *.host[*].mobility.faceForward false
param *.attacker[*].mobility.typename "\"MassMobility\""
param *.attacker[*].mobility.changeInterval 1s
param *.attacker[*].mobility.initialMovementHeading "uniform(0deg, 360deg)"
param *.attacker[*].mobility.initialMovementElevation "uniform(-90deg, 90deg)"
param *.attacker[*].mobility.angleDelta uniform(-10deg,10deg)
param *.attacker[*].mobility.rotationAxisAngle uniform(-10deg,10deg)
param *.attacker[*].mobility.speed uniform(10mps,20mps)
param *.attacker[*].mobility.faceForward false
param *.attacker*.wlan[0].typename "\"AckingWirelessInterface\""
param *.attacker*.wlan[0].radio.transmitter.communicationRange 300m
param *.attacker*.wlan[0].radio.displayCommunicationRange false

vector 0 FanetGrayHole.host[0].wlan[0].radio radioMode:vector ETV
attr interpolationmode sample-hold
attr source radioModeChanged
attr title "Radio mode, vector"
vector 1 FanetGrayHole.host[1].wlan[0].radio radioMode:vector ETV
attr interpolationmode sample-hold
attr source radioModeChanged
attr title "Radio mode, vector"
vector 2 FanetGrayHole.host[2].wlan[0].radio radioMode:vector ETV
attr interpolationmode sample-hold
attr source radioModeChanged
attr title "Radio mode, vector"
vector 3 FanetGrayHole.host[3].wlan[0].radio radioMode:vector ETV
attr interpolationmode sample-hold
attr source radioModeChanged
attr title "Radio mode, vector"
vector 4 FanetGrayHole.host[4].wlan[0].radio radioMode:vector ETV
attr interpolationmode sample-hold
attr source radioModeChanged
attr title "Radio mode, vector"
vector 5 FanetGrayHole.host[5].wlan[0].radio radioMode:vector ETV
attr interpolationmode sample-hold
attr source radioModeChanged
attr title "Radio mode, vector"
vector 6 FanetGrayHole.host[6].wlan[0].radio radioMode:vector ETV
attr interpolationmode sample-hold
attr source radioModeChanged
attr title "Radio mode, vector"
vector 7 FanetGrayHole.host[7].wlan[0].radio radioMode:vector ETV
attr interpolationmode sample-hold
attr source radioModeChanged
attr title "Radio mode, vector"
vector 8 FanetGrayHole.host[8].wlan[0].radio radioMode:vector ETV
attr interpolationmode sample-hold
attr source radioModeChanged
attr title "Radio mode, vector"
vector 9 FanetGrayHole.host[9].wlan[0].radio radioMode:vector ETV
attr interpolationmode sample-hold
attr source radioModeChanged
attr title "Radio mode, vector"
vector 10 FanetGrayHole.host[10].wlan[0].radio radioMode:vector ETV
attr interpolationmode sample-hold
attr source radioModeChanged
attr title "Radio mode, vector"
vector 11 FanetGrayHole.host[11].wlan[0].radio radioMode:vector ETV
attr interpolationmode sample-hold
attr source radioModeChanged
attr title "Radio mode, vector"
vector 12 FanetGrayHole.host[12].wlan[0].radio radioMode:vector ETV
attr interpolationmode sample-hold
attr source radioModeChanged
attr title "Radio mode, vector"
vector 13 FanetGrayHole.host[13].wlan[0].radio radioMode:vector ETV
attr interpolationmode sample-hold
attr source radioModeChanged
attr title "Radio mode, vector"
vector 14 FanetGrayHole.host[14].wlan[0].radio radioMode:vector ETV
attr interpolationmode sample-hold
attr source radioModeChanged
attr title "Radio mode, vector"
vector 15 FanetGrayHole.host[15].wlan[0].radio radioMode:vector ETV
attr interpolationmode sample-hold
attr source radioModeChanged
attr title "Radio mode, vector"
vector 16 FanetGrayHole.host[16].wlan[0].radio radioMode:vector ETV
attr interpolationmode sample-hold
attr source radioModeChanged
attr title "Radio mode, vector"
vector 17 FanetGrayHole.host[17].wlan[0].radio radioMode:vector ETV
attr interpolationmode sample-hold
attr source radioModeChanged
attr title "Radio mode, vector"
vector 18 FanetGrayHole.host[18].wlan[0].radio radioMode:vector ETV
attr interpolationmode sample-hold
attr source radioModeChanged
attr title "Radio mode, vector"
vector 19 FanetGrayHole.host[19].wlan[0].radio radioMode:vector ETV
attr interpolationmode sample-hold
attr source radioModeChanged
attr title "Radio mode, vector"
vector 20 FanetGrayHole.host[20].wlan[0].radio radioMode:vector ETV
attr interpolationmode sample-hold
attr source radioModeChanged
attr title "Radio mode, vector"
vector 21 FanetGrayHole.host[21].wlan[0].radio radioMode:vector ETV
attr interpolationmode sample-hold
attr source radioModeChanged
attr title "Radio mode, vector"
vector 22 FanetGrayHole.host[22].wlan[0].radio radioMode:vector ETV
attr interpolationmode sample-hold
attr source radioModeChanged
attr title "Radio mode, vector"
vector 23 FanetGrayHole.host[23].wlan[0].radio radioMode:vector ETV
attr interpolationmode sample-hold
attr source radioModeChanged
attr title "Radio mode, vector"
vector 24 FanetGrayHole.host[24].wlan[0].radio radioMode:vector ETV
attr interpolationmode sample-hold
attr source radioModeChanged
attr title "Radio mode, vector"
vector 25 FanetGrayHole.attacker[0].wlan[0].radio radioMode:vector ETV
attr interpolationmode sample-hold
attr source radioModeChanged
attr title "Radio mode, vector"
vector 26 FanetGrayHole.attacker[1].wlan[0].radio radioMode:vector ETV
attr interpolationmode sample-hold
attr source radioModeChanged
attr title "Radio mode, vector"
vector 27 FanetGrayHole.attacker[2].wlan[0].radio radioMode:vector ETV
attr interpolationmode sample-hold
attr source radioModeChanged
attr title "Radio mode, vector"
vector 28 FanetGrayHole.attacker[3].wlan[0].radio radioMode:vector ETV
attr interpolationmode sample-hold
attr source radioModeChanged
attr title "Radio mode, vector"
vector 29 FanetGrayHole.attacker[4].wlan[0].radio radioMode:vector ETV
attr interpolationmode sample-hold
attr source radioModeChanged
attr title "Radio mode, vector"
vector 30 FanetGrayHole.attacker[5].wlan[0].radio radioMode:vector ETV
attr interpolationmode sample-hold
attr source radioModeChanged
attr title "Radio mode, vector"
vector 31 FanetGrayHole.attacker[6].wlan[0].radio radioMode:vector ETV
attr interpolationmode sample-hold
attr source radioModeChanged
attr title "Radio mode, vector"
vector 32 FanetGrayHole.attacker[7].wlan[0].radio radioMode:vector ETV
attr interpolationmode sample-hold
attr source radioModeChanged
attr title "Radio mode, vector"
vector 33 FanetGrayHole.attacker[8].wlan[0].radio radioMode:vector ETV
attr interpolationmode sample-hold
attr source radioModeChanged
attr title "Radio mode, vector"
vector 34 FanetGrayHole.attacker[9].wlan[0].radio radioMode:vector ETV
attr interpolationmode sample-hold
attr source radioModeChanged
attr title "Radio mode, vector"
vector 35 FanetGrayHole.attacker[10].wlan[0].radio radioMode:vector ETV
attr interpolationmode sample-hold
attr source radioModeChanged
attr title "Radio mode, vector"
vector 36 FanetGrayHole.attacker[11].wlan[0].radio radioMode:vector ETV
attr interpolationmode sample-hold
attr source radioModeChanged
attr title "Radio mode, vector"
vector 37 FanetGrayHole.attacker[12].wlan[0].radio radioMode:vector ETV
attr interpolationmode sample-hold
attr source radioModeChanged
attr title "Radio mode, vector"
vector 38 FanetGrayHole.attacker[13].wlan[0].radio radioMode:vector ETV
attr interpolationmode sample-hold
attr source radioModeChanged
attr title "Radio mode, vector"
vector 39 FanetGrayHole.attacker[14].wlan[0].radio radioMode:vector ETV
attr interpolationmode sample-hold
attr source radioModeChanged
attr title "Radio mode, vector"
vector 40 FanetGrayHole.attacker[15].wlan[0].radio radioMode:vector ETV
attr interpolationmode sample-hold
attr source radioModeChanged
attr title "Radio mode, vector"
vector 41 FanetGrayHole.attacker[16].wlan[0].radio radioMode:vector ETV
attr interpolationmode sample-hold
attr source radioModeChanged
attr title "Radio mode, vector"
vector 42 FanetGrayHole.attacker[17].wlan[0].radio radioMode:vector ETV
attr interpolationmode sample-hold
attr source radioModeChanged
attr title "Radio mode, vector"
vector 43 FanetGrayHole.attacker[18].wlan[0].radio radioMode:vector ETV
attr interpolationmode sample-hold
attr source radioModeChanged
attr title "Radio mode, vector"
vector 44 FanetGrayHole.attacker[19].wlan[0].radio radioMode:vector ETV
attr interpolationmode sample-hold
attr source radioModeChanged
attr title "Radio mode, vector"
vector 45 FanetGrayHole.attacker[20].wlan[0].radio radioMode:vector ETV
attr interpolationmode sample-hold
attr source radioModeChanged
attr title "Radio mode, vector"
vector 46 FanetGrayHole.attacker[21].wlan[0].radio radioMode:vector ETV
attr interpolationmode sample-hold
attr source radioModeChanged
attr title "Radio mode, vector"
vector 47 FanetGrayHole.attacker[22].wlan[0].radio radioMode:vector ETV
attr interpolationmode sample-hold
attr source radioModeChanged
attr title "Radio mode, vector"
vector 48 FanetGrayHole.attacker[23].wlan[0].radio radioMode:vector ETV
attr interpolationmode sample-hold
attr source radioModeChanged
attr title "Radio mode, vector"
vector 49 FanetGrayHole.attacker[24].wlan[0].radio radioMode:vector ETV
attr interpolationmode sample-hold
attr source radioModeChanged
attr title "Radio mode, vector"
vector 50 FanetGrayHole.host[0].wlan[0].radio receptionState:vector ETV
attr interpolationmode sample-hold
attr source receptionStateChanged
attr title "Radio reception state, vector"
vector 51 FanetGrayHole.host[0].wlan[0].radio transmissionState:vector ETV
attr interpolationmode sample-hold
attr source transmissionStateChanged
attr title "Radio transmission state, vector"
vector 52 FanetGrayHole.host[1].wlan[0].radio receptionState:vector ETV
attr interpolationmode sample-hold
attr source receptionStateChanged
attr title "Radio reception state, vector"
vector 53 FanetGrayHole.host[1].wlan[0].radio transmissionState:vector ETV
attr interpolationmode sample-hold
attr source transmissionStateChanged
attr title "Radio transmission state, vector"
vector 54 FanetGrayHole.host[2].wlan[0].radio receptionState:vector ETV
attr interpolationmode sample-hold
attr source receptionStateChanged
attr title "Radio reception state, vector"
vector 55 FanetGrayHole.host[2].wlan[0].radio transmissionState:vector ETV
attr interpolationmode sample-hold
attr source transmissionStateChanged
attr title "Radio transmission state, vector"
vector 56 FanetGrayHole.host[3].wlan[0].radio receptionState:vector ETV
attr interpolationmode sample-hold
attr source receptionStateChanged
attr title "Radio reception state, vector"
vector 57 FanetGrayHole.host[3].wlan[0].radio transmissionState:vector ETV
attr interpolationmode sample-hold
attr source transmissionStateChanged
attr title "Radio transmission state, vector"
vector 58 FanetGrayHole.host[4].wlan[0].radio receptionState:vector ETV
attr interpolationmode sample-hold
attr source receptionStateChanged
attr title "Radio reception state, vector"
vector 59 FanetGrayHole.host[4].wlan[0].radio transmissionState:vector ETV
attr interpolationmode sample-hold
attr source transmissionStateChanged
attr title "Radio transmission state, vector"
vector 60 FanetGrayHole.host[5].wlan[0].radio receptionState:vector ETV
attr interpolationmode sample-hold
attr source receptionStateChanged
attr title "Radio reception state, vector"
vector 61 FanetGrayHole.host[5].wlan[0].radio transmissionState:vector ETV
attr interpolationmode sample-hold
attr source transmissionStateChanged
attr title "Radio transmission state, vector"
vector 62 FanetGrayHole.host[6].wlan[0].radio receptionState:vector ETV
attr interpolationmode sample-hold
attr source receptionStateChanged
attr title "Radio reception state, vector"
vector 63 FanetGrayHole.host[6].wlan[0].radio transmissionState:vector ETV
attr interpolationmode sample-hold
attr source transmissionStateChanged
attr title "Radio transmission state, vector"
vector 64 FanetGrayHole.host[7].wlan[0].radio receptionState:vector ETV
attr interpolationmode sample-hold
attr source receptionStateChanged
attr title "Radio reception state, vector"
vector 65 FanetGrayHole.host[7].wlan[0].radio transmissionState:vector ETV
attr interpolationmode sample-hold
attr source transmissionStateChanged
attr title "Radio transmission state, vector"
vector 66 FanetGrayHole.host[8].wlan[0].radio receptionState:vector ETV
attr interpolationmode sample-hold
attr source receptionStateChanged
attr title "Radio reception state, vector"
vector 67 FanetGrayHole.host[8].wlan[0].radio transmissionState:vector ETV
attr interpolationmode sample-hold
attr source transmissionStateChanged
attr title "Radio transmission state, vector"
vector 68 FanetGrayHole.host[9].wlan[0].radio receptionState:vector ETV
attr interpolationmode sample-hold
attr source receptionStateChanged
attr title "Radio reception state, vector"
vector 69 FanetGrayHole.host[9].wlan[0].radio transmissionState:vector ETV
attr interpolationmode sample-hold
attr source transmissionStateChanged
attr title "Radio transmission state, vector"
vector 70 FanetGrayHole.host[10].wlan[0].radio receptionState:vector ETV
attr interpolationmode sample-hold
attr source receptionStateChanged
attr title "Radio reception state, vector"
vector 71 FanetGrayHole.host[10].wlan[0].radio transmissionState:vector ETV
attr interpolationmode sample-hold
attr source transmissionStateChanged
attr title "Radio transmission state, vector"
vector 72 FanetGrayHole.host[11].wlan[0].radio receptionState:vector ETV
attr interpolationmode sample-hold
attr source receptionStateChanged
attr title "Radio reception state, vector"
vector 73 FanetGrayHole.host[11].wlan[0].radio transmissionState:vector ETV
attr interpolationmode sample-hold
attr source transmissionStateChanged
attr title "Radio transmission state, vector"
vector 74 FanetGrayHole.host[12].wlan[0].radio receptionState:vector ETV
attr interpolationmode sample-hold
attr source receptionStateChanged
attr title "Radio reception state, vector"
vector 75 FanetGrayHole.host[12].wlan[0].radio transmissionState:vector ETV
attr interpolationmode sample-hold
attr source transmissionStateChanged
attr title "Radio transmission state, vector"
vector 76 FanetGrayHole.host[13].wlan[0].radio receptionState:vector ETV
attr interpolationmode sample-hold
attr source receptionStateChanged
attr title "Radio reception state, vector"
vector 77 FanetGrayHole.host[13].wlan[0].radio transmissionState:vector ETV
attr interpolationmode sample-hold
attr source transmissionStateChanged
attr title "Radio transmission state, vector"
vector 78 FanetGrayHole.host[14].wlan[0].radio receptionState:vector ETV
attr interpolationmode sample-hold
attr source receptionStateChanged
attr title "Radio reception state, vector"
vector 79 FanetGrayHole.host[14].wlan[0].radio transmissionState:vector ETV
attr interpolationmode sample-hold
attr source transmissionStateChanged
attr title "Radio transmission state, vector"
vector 80 FanetGrayHole.host[15].wlan[0].radio receptionState:vector ETV
attr interpolationmode sample-hold
attr source receptionStateChanged
attr title "Radio reception state, vector"
vector 81 FanetGrayHole.host[15].wlan[0].radio transmissionState:vector ETV
attr interpolationmode sample-hold
attr source transmissionStateChanged
attr title "Radio transmission state, vector"
vector 82 FanetGrayHole.host[16].wlan[0].radio receptionState:vector ETV
attr interpolationmode sample-hold
attr source receptionStateChanged
attr title "Radio reception state, vector"
vector 83 FanetGrayHole.host[16].wlan[0].radio transmissionState:vector ETV
attr interpolationmode sample-hold
attr source transmissionStateChanged
attr title "Radio transmission state, vector"
vector 84 FanetGrayHole.host[17].wlan[0].radio receptionState:vector ETV
attr interpolationmode sample-hold
attr source receptionStateChanged
attr title "Radio reception state, vector"
vector 85 FanetGrayHole.host[17].wlan[0].radio transmissionState:vector ETV
attr interpolationmode sample-hold
attr source transmissionStateChanged
attr title "Radio transmission state, vector"
vector 86 FanetGrayHole.host[18].wlan[0].radio receptionState:vector ETV
attr interpolationmode sample-hold
attr source receptionStateChanged
attr title "Radio reception state, vector"
vector 87 FanetGrayHole.host[18].wlan[0].radio transmissionState:vector ETV
attr interpolationmode sample-hold
attr source transmissionStateChanged
attr title "Radio transmission state, vector"
vector 88 FanetGrayHole.host[19].wlan[0].radio receptionState:vector ETV
attr interpolationmode sample-hold
attr source receptionStateChanged
attr title "Radio reception state, vector"
vector 89 FanetGrayHole.host[19].wlan[0].radio transmissionState:vector ETV
attr interpolationmode sample-hold
attr source transmissionStateChanged
attr title "Radio transmission state, vector"
vector 90 FanetGrayHole.host[20].wlan[0].radio receptionState:vector ETV
attr interpolationmode sample-hold
attr source receptionStateChanged
attr title "Radio reception state, vector"
vector 91 FanetGrayHole.host[20].wlan[0].radio transmissionState:vector ETV
attr interpolationmode sample-hold
attr source transmissionStateChanged
attr title "Radio transmission state, vector"
vector 92 FanetGrayHole.host[21].wlan[0].radio receptionState:vector ETV
attr interpolationmode sample-hold
attr source receptionStateChanged
attr title "Radio reception state, vector"
vector 93 FanetGrayHole.host[21].wlan[0].radio transmissionState:vector ETV
attr interpolationmode sample-hold
attr source transmissionStateChanged
attr title "Radio transmission state, vector"
vector 94 FanetGrayHole.host[22].wlan[0].radio receptionState:vector ETV
attr interpolationmode sample-hold
attr source receptionStateChanged
attr title "Radio reception state, vector"
vector 95 FanetGrayHole.host[22].wlan[0].radio transmissionState:vector ETV
attr interpolationmode sample-hold
attr source transmissionStateChanged
attr title "Radio transmission state, vector"
vector 96 FanetGrayHole.host[23].wlan[0].radio receptionState:vector ETV
attr interpolationmode sample-hold
attr source receptionStateChanged
attr title "Radio reception state, vector"
vector 97 FanetGrayHole.host[23].wlan[0].radio transmissionState:vector ETV
attr interpolationmode sample-hold
attr source transmissionStateChanged
attr title "Radio transmission state, vector"
vector 98 FanetGrayHole.host[24].wlan[0].radio receptionState:vector ETV
attr interpolationmode sample-hold
attr source receptionStateChanged
attr title "Radio reception state, vector"
vector 99 FanetGrayHole.host[24].wlan[0].radio transmissionState:vector ETV
attr interpolationmode sample-hold
attr source transmissionStateChanged
attr title "Radio transmission state, vector"
vector 100 FanetGrayHole.attacker[0].wlan[0].radio receptionState:vector ETV
attr interpolationmode sample-hold
attr source receptionStateChanged
attr title "Radio reception state, vector"
vector 101 FanetGrayHole.attacker[0].wlan[0].radio transmissionState:vector ETV
attr interpolationmode sample-hold
attr source transmissionStateChanged
attr title "Radio transmission state, vector"
vector 102 FanetGrayHole.attacker[1].wlan[0].radio receptionState:vector ETV
attr interpolationmode sample-hold
attr source receptionStateChanged
attr title "Radio reception state, vector"
vector 103 FanetGrayHole.attacker[1].wlan[0].radio transmissionState:vector ETV
attr interpolationmode sample-hold
attr source transmissionStateChanged
attr title "Radio transmission state, vector"
vector 104 FanetGrayHole.attacker[2].wlan[0].radio receptionState:vector ETV
attr interpolationmode sample-hold
attr source receptionStateChanged
attr title "Radio reception state, vector"
vector 105 FanetGrayHole.attacker[2].wlan[0].radio transmissionState:vector ETV
attr interpolationmode sample-hold
attr source transmissionStateChanged
attr title "Radio transmission state, vector"
vector 106 FanetGrayHole.attacker[3].wlan[0].radio receptionState:vector ETV
attr interpolationmode sample-hold
attr source receptionStateChanged
attr title "Radio reception state, vector"
vector 107 FanetGrayHole.attacker[3].wlan[0].radio transmissionState:vector ETV
attr interpolationmode sample-hold
attr source transmissionStateChanged
attr title "Radio transmission state, vector"
vector 108 FanetGrayHole.attacker[4].wlan[0].radio receptionState:vector ETV
attr interpolationmode sample-hold
attr source receptionStateChanged
attr title "Radio reception state, vector"
vector 109 FanetGrayHole.attacker[4].wlan[0].radio transmissionState:vector ETV
attr interpolationmode sample-hold
attr source transmissionStateChanged
attr title "Radio transmission state, vector"
vector 110 FanetGrayHole.attacker[5].wlan[0].radio receptionState:vector ETV
attr interpolationmode sample-hold
attr source receptionStateChanged
attr title "Radio reception state, vector"
vector 111 FanetGrayHole.attacker[5].wlan[0].radio transmissionState:vector ETV
attr interpolationmode sample-hold
attr source transmissionStateChanged
attr title "Radio transmission state, vector"
vector 112 FanetGrayHole.attacker[6].wlan[0].radio receptionState:vector ETV
attr interpolationmode sample-hold
attr source receptionStateChanged
attr title "Radio reception state, vector"
vector 113 FanetGrayHole.attacker[6].wlan[0].radio transmissionState:vector ETV
attr interpolationmode sample-hold
attr source transmissionStateChanged
attr title "Radio transmission state, vector"
vector 114 FanetGrayHole.attacker[7].wlan[0].radio receptionState:vector ETV
attr interpolationmode sample-hold
attr source receptionStateChanged
attr title "Radio reception state, vector"
vector 115 FanetGrayHole.attacker[7].wlan[0].radio transmissionState:vector ETV
attr interpolationmode sample-hold
attr source transmissionStateChanged
attr title "Radio transmission state, vector"
vector 116 FanetGrayHole.attacker[8].wlan[0].radio receptionState:vector ETV
attr interpolationmode sample-hold
attr source receptionStateChanged
attr title "Radio reception state, vector"
vector 117 FanetGrayHole.attacker[8].wlan[0].radio transmissionState:vector ETV
attr interpolationmode sample-hold
attr source transmissionStateChanged
attr title "Radio transmission state, vector"
vector 118 FanetGrayHole.attacker[9].wlan[0].radio receptionState:vector ETV
attr interpolationmode sample-hold
attr source receptionStateChanged
attr title "Radio reception state, vector"
vector 119 FanetGrayHole.attacker[9].wlan[0].radio transmissionState:vector ETV
attr interpolationmode sample-hold
attr source transmissionStateChanged
attr title "Radio transmission state, vector"
vector 120 FanetGrayHole.attacker[10].wlan[0].radio receptionState:vector ETV
attr interpolationmode sample-hold
attr source receptionStateChanged
attr title "Radio reception state, vector"
vector 121 FanetGrayHole.attacker[10].wlan[0].radio transmissionState:vector ETV
attr interpolationmode sample-hold
attr source transmissionStateChanged
attr title "Radio transmission state, vector"
vector 122 FanetGrayHole.attacker[11].wlan[0].radio receptionState:vector ETV
attr interpolationmode sample-hold
attr source receptionStateChanged
attr title "Radio reception state, vector"
vector 123 FanetGrayHole.attacker[11].wlan[0].radio transmissionState:vector ETV
attr interpolationmode sample-hold
attr source transmissionStateChanged
attr title "Radio transmission state, vector"
vector 124 FanetGrayHole.attacker[12].wlan[0].radio receptionState:vector ETV
attr interpolationmode sample-hold
attr source receptionStateChanged
attr title "Radio reception state, vector"
vector 125 FanetGrayHole.attacker[12].wlan[0].radio transmissionState:vector ETV
attr interpolationmode sample-hold
attr source transmissionStateChanged
attr title "Radio transmission state, vector"
vector 126 FanetGrayHole.attacker[13].wlan[0].radio receptionState:vector ETV
attr interpolationmode sample-hold
attr source receptionStateChanged
attr title "Radio reception state, vector"
vector 127 FanetGrayHole.attacker[13].wlan[0].radio transmissionState:vector ETV
attr interpolationmode sample-hold
attr source transmissionStateChanged
attr title "Radio transmission state, vector"
vector 128 FanetGrayHole.attacker[14].wlan[0].radio receptionState:vector ETV
attr interpolationmode sample-hold
attr source receptionStateChanged
attr title "Radio reception state, vector"
vector 129 FanetGrayHole.attacker[14].wlan[0].radio transmissionState:vector ETV
attr interpolationmode sample-hold
attr source transmissionStateChanged
attr title "Radio transmission state, vector"
vector 130 FanetGrayHole.attacker[15].wlan[0].radio receptionState:vector ETV
attr interpolationmode sample-hold
attr source receptionStateChanged
attr title "Radio reception state, vector"
vector 131 FanetGrayHole.attacker[15].wlan[0].radio transmissionState:vector ETV
attr interpolationmode sample-hold
attr source transmissionStateChanged
attr title "Radio transmission state, vector"
vector 132 FanetGrayHole.attacker[16].wlan[0].radio receptionState:vector ETV
attr interpolationmode sample-hold
attr source receptionStateChanged
attr title "Radio reception state, vector"
vector 133 FanetGrayHole.attacker[16].wlan[0].radio transmissionState:vector ETV
attr interpolationmode sample-hold
attr source transmissionStateChanged
attr title "Radio transmission state, vector"
vector 134 FanetGrayHole.attacker[17].wlan[0].radio receptionState:vector ETV
attr interpolationmode sample-hold
attr source receptionStateChanged
attr title "Radio reception state, vector"
vector 135 FanetGrayHole.attacker[17].wlan[0].radio transmissionState:vector ETV
attr interpolationmode sample-hold
attr source transmissionStateChanged
attr title "Radio transmission state, vector"
vector 136 FanetGrayHole.attacker[18].wlan[0].radio receptionState:vector ETV
attr interpolationmode sample-hold
attr source receptionStateChanged
attr title "Radio reception state, vector"
vector 137 FanetGrayHole.attacker[18].wlan[0].radio transmissionState:vector ETV
attr interpolationmode sample-hold
attr source transmissionStateChanged
attr title "Radio transmission state, vector"
vector 138 FanetGrayHole.attacker[19].wlan[0].radio receptionState:vector ETV
attr interpolationmode sample-hold
attr source receptionStateChanged
attr title "Radio reception state, vector"
vector 139 FanetGrayHole.attacker[19].wlan[0].radio transmissionState:vector ETV
attr interpolationmode sample-hold
attr source transmissionStateChanged
attr title "Radio transmission state, vector"
vector 140 FanetGrayHole.attacker[20].wlan[0].radio receptionState:vector ETV
attr interpolationmode sample-hold
attr source receptionStateChanged
attr title "Radio reception state, vector"
vector 141 FanetGrayHole.attacker[20].wlan[0].radio transmissionState:vector ETV
attr interpolationmode sample-hold
attr source transmissionStateChanged
attr title "Radio transmission state, vector"
vector 142 FanetGrayHole.attacker[21].wlan[0].radio receptionState:vector ETV
attr interpolationmode sample-hold
attr source receptionStateChanged
attr title "Radio reception state, vector"
vector 143 FanetGrayHole.attacker[21].wlan[0].radio transmissionState:vector ETV
attr interpolationmode sample-hold
attr source transmissionStateChanged
attr title "Radio transmission state, vector"
vector 144 FanetGrayHole.attacker[22].wlan[0].radio receptionState:vector ETV
attr interpolationmode sample-hold
attr source receptionStateChanged
attr title "Radio reception state, vector"
vector 145 FanetGrayHole.attacker[22].wlan[0].radio transmissionState:vector ETV
attr interpolationmode sample-hold
attr source transmissionStateChanged
attr title "Radio transmission state, vector"
vector 146 FanetGrayHole.attacker[23].wlan[0].radio receptionState:vector ETV
attr interpolationmode sample-hold
attr source receptionStateChanged
attr title "Radio reception state, vector"
vector 147 FanetGrayHole.attacker[23].wlan[0].radio transmissionState:vector ETV
attr interpolationmode sample-hold
attr source transmissionStateChanged
attr title "Radio transmission state, vector"
vector 148 FanetGrayHole.attacker[24].wlan[0].radio receptionState:vector ETV
attr interpolationmode sample-hold
attr source receptionStateChanged
attr title "Radio reception state, vector"
vector 149 FanetGrayHole.attacker[24].wlan[0].radio transmissionState:vector ETV
attr interpolationmode sample-hold
attr source transmissionStateChanged
attr title "Radio transmission state, vector"
vector 150 FanetGrayHole.attacker[7].wlan[0].mac rcvdPkFromHl:vector(packetBytes) ETV
attr interpolationmode none
attr source packetReceivedFromUpper
attr title "packets received from higher layer, vector(packetBytes)"
vector 151 FanetGrayHole.attacker[7].wlan[0].mac.queue packetPushed:vector(packetBytes) ETV
attr interpolationmode none
attr title "packet pushed, vector(packetBytes)"
vector 152 FanetGrayHole.attacker[7].wlan[0].mac.queue queueLength:vector ETV
attr interpolationmode sample-hold
attr source "count(packetPushed) - count(packetPopped) - count(packetRemoved) - count(packetDropped)"
attr title "queue length, vector"
vector 153 FanetGrayHole.attacker[7].wlan[0].mac.queue packetPopped:vector(packetBytes) ETV
attr interpolationmode none
attr title "packet popped, vector(packetBytes)"
vector 154 FanetGrayHole.attacker[7].wlan[0].mac.queue queueingTime:vector ETV
attr interpolationmode none
attr source queueingTime(packetPopped)
attr title "queueing times, vector"
attr unit s
vector 155 FanetGrayHole.attacker[7].wlan[0].mac sentDownPk:vector(packetBytes) ETV
attr interpolationmode none
attr source packetSentToLower
attr title "packets sent to lower layer, vector(packetBytes)"
vector 156 FanetGrayHole.host[4].wlan[0].mac rcvdPkFromLl:vector(packetBytes) ETV
attr interpolationmode none
attr source packetReceivedFromLower
attr title "packets received from lower layer, vector(packetBytes)"
vector 157 FanetGrayHole.host[4].wlan[0].mac passedUpPk:vector(packetBytes) ETV
attr interpolationmode none
attr source packetSentToUpper
attr title "packets passed to higher layer, vector(packetBytes)"
vector 158 FanetGrayHole.host[15].wlan[0].mac rcvdPkFromLl:vector(packetBytes) ETV
attr interpolationmode none
attr source packetReceivedFromLower
attr title "packets received from lower layer, vector(packetBytes)"
vector 159 FanetGrayHole.host[15].wlan[0].mac passedUpPk:vector(packetBytes) ETV
attr interpolationmode none
attr source packetSentToUpper
attr title "packets passed to higher layer, vector(packetBytes)"
vector 160 FanetGrayHole.attacker[8].wlan[0].mac rcvdPkFromLl:vector(packetBytes) ETV
attr interpolationmode none
attr source packetReceivedFromLower
attr title "packets received from lower layer, vector(packetBytes)"
vector 161 FanetGrayHole.attacker[8].wlan[0].mac passedUpPk:vector(packetBytes) ETV
attr interpolationmode none
attr source packetSentToUpper
attr title "packets passed to higher layer, vector(packetBytes)"
vector 162 FanetGrayHole.host[16].wlan[0].mac rcvdPkFromLl:vector(packetBytes) ETV
attr interpolationmode none
attr source packetReceivedFromLower
attr title "packets received from lower layer, vector(packetBytes)"
vector 163 FanetGrayHole.host[16].wlan[0].mac passedUpPk:vector(packetBytes) ETV
attr interpolationmode none
attr source packetSentToUpper
attr title "packets passed to higher layer, vector(packetBytes)"
vector 164 FanetGrayHole.attacker[10].wlan[0].mac rcvdPkFromLl:vector(packetBytes) ETV
attr interpolationmode none
attr source packetReceivedFromLower
attr title "packets received from lower layer, vector(packetBytes)"
vector 165 FanetGrayHole.attacker[10].wlan[0].mac passedUpPk:vector(packetBytes) ETV
attr interpolationmode none
attr source packetSentToUpper
attr title "packets passed to higher layer, vector(packetBytes)"
vector 166 FanetGrayHole.host[18].wlan[0].mac rcvdPkFromLl:vector(packetBytes) ETV
attr interpolationmode none
attr source packetReceivedFromLower
attr title "packets received from lower layer, vector(packetBytes)"
vector 167 FanetGrayHole.host[18].wlan[0].mac passedUpPk:vector(packetBytes) ETV
attr interpolationmode none
attr source packetSentToUpper
attr title "packets passed to higher layer, vector(packetBytes)"
vector 168 FanetGrayHole.attacker[4].wlan[0].mac rcvdPkFromLl:vector(packetBytes) ETV
attr interpolationmode none
attr source packetReceivedFromLower
attr title "packets received from lower layer, vector(packetBytes)"
vector 169 FanetGrayHole.attacker[4].wlan[0].mac passedUpPk:vector(packetBytes) ETV
attr interpolationmode none
attr source packetSentToUpper
attr title "packets passed to higher layer, vector(packetBytes)"
vector 170 FanetGrayHole.host[7].wlan[0].mac rcvdPkFromLl:vector(packetBytes) ETV
attr interpolationmode none
attr source packetReceivedFromLower
attr title "packets received from lower layer, vector(packetBytes)"
vector 171 FanetGrayHole.host[7].wlan[0].mac passedUpPk:vector(packetBytes) ETV
attr interpolationmode none
attr source packetSentToUpper
attr title "packets passed to higher layer, vector(packetBytes)"
vector 172 FanetGrayHole.attacker[11].wlan[0].mac rcvdPkFromLl:vector(packetBytes) ETV
attr interpolationmode none
attr source packetReceivedFromLower
attr title "packets received from lower layer, vector(packetBytes)"
vector 173 FanetGrayHole.attacker[11].wlan[0].mac passedUpPk:vector(packetBytes) ETV
attr interpolationmode none
attr source packetSentToUpper
attr title "packets passed to higher layer, vector(packetBytes)"
vector 174 FanetGrayHole.host[15].wlan[0].mac rcvdPkFromHl:vector(packetBytes) ETV
attr interpolationmode none
attr source packetReceivedFromUpper
attr title "packets received from higher layer, vector(packetBytes)"
vector 175 FanetGrayHole.host[15].wlan[0].mac.queue packetPushed:vector(packetBytes) ETV
attr interpolationmode none
attr title "packet pushed, vector(packetBytes)"
vector 176 FanetGrayHole.host[15].wlan[0].mac.queue queueLength:vector ETV
attr interpolationmode sample-hold
attr source "count(packetPushed) - count(packetPopped) - count(packetRemoved) - count(packetDropped)"
attr title "queue length, vector"
vector 177 FanetGrayHole.host[15].wlan[0].mac.queue packetPopped:vector(packetBytes) ETV
attr interpolationmode none
attr title "packet popped, vector(packetBytes)"
vector 178 FanetGrayHole.host[15].wlan[0].mac.queue queueingTime:vector ETV
attr interpolationmode none
attr source queueingTime(packetPopped)
attr title "queueing times, vector"
attr unit s
vector 179 FanetGrayHole.host[15].wlan[0].mac sentDownPk:vector(packetBytes) ETV
attr interpolationmode none
attr source packetSentToLower
attr title "packets sent to lower layer, vector(packetBytes)"
vector 180 FanetGrayHole.attacker[7].wlan[0].mac rcvdPkFromLl:vector(packetBytes) ETV
attr interpolationmode none
attr source packetReceivedFromLower
attr title "packets received from lower layer, vector(packetBytes)"
vector 181 FanetGrayHole.attacker[7].wlan[0].mac passedUpPk:vector(packetBytes) ETV
attr interpolationmode none
attr source packetSentToUpper
attr title "packets passed to higher layer, vector(packetBytes)"
vector 182 FanetGrayHole.host[24].wlan[0].mac rcvdPkFromLl:vector(packetBytes) ETV
attr interpolationmode none
attr source packetReceivedFromLower
attr title "packets received from lower layer, vector(packetBytes)"
vector 183 FanetGrayHole.host[24].wlan[0].mac passedUpPk:vector(packetBytes) ETV
attr interpolationmode none
attr source packetSentToUpper
attr title "packets passed to higher layer, vector(packetBytes)"
vector 184 FanetGrayHole.attacker[3].wlan[0].mac rcvdPkFromHl:vector(packetBytes) ETV
attr interpolationmode none
attr source packetReceivedFromUpper
attr title "packets received from higher layer, vector(packetBytes)"
vector 185 FanetGrayHole.attacker[3].wlan[0].mac.queue packetPushed:vector(packetBytes) ETV
attr interpolationmode none
attr title "packet pushed, vector(packetBytes)"
vector 186 FanetGrayHole.attacker[3].wlan[0].mac.queue queueLength:vector ETV
attr interpolationmode sample-hold
attr source "count(packetPushed) - count(packetPopped) - count(packetRemoved) - count(packetDropped)"
attr title "queue length, vector"
vector 187 FanetGrayHole.attacker[3].wlan[0].mac.queue packetPopped:vector(packetBytes) ETV
attr interpolationmode none
attr title "packet popped, vector(packetBytes)"
vector 188 FanetGrayHole.attacker[3].wlan[0].mac.queue queueingTime:vector ETV
attr interpolationmode none
attr source queueingTime(packetPopped)
attr title "queueing times, vector"
attr unit s
vector 189 FanetGrayHole.attacker[3].wlan[0].mac sentDownPk:vector(packetBytes) ETV
attr interpolationmode none
attr source packetSentToLower
attr title "packets sent to lower layer, vector(packetBytes)"
vector 190 FanetGrayHole.host[2].wlan[0].mac rcvdPkFromLl:vector(packetBytes) ETV
attr interpolationmode none
attr source packetReceivedFromLower
attr title "packets received from lower layer, vector(packetBytes)"
vector 191 FanetGrayHole.host[2].wlan[0].mac passedUpPk:vector(packetBytes) ETV
attr interpolationmode none
attr source packetSentToUpper
attr title "packets passed to higher layer, vector(packetBytes)"
vector 192 FanetGrayHole.attacker[6].wlan[0].mac rcvdPkFromLl:vector(packetBytes) ETV
attr interpolationmode none
attr source packetReceivedFromLower
attr title "packets received from lower layer, vector(packetBytes)"
vector 193 FanetGrayHole.attacker[6].wlan[0].mac passedUpPk:vector(packetBytes) ETV
attr interpolationmode none
attr source packetSentToUpper
attr title "packets passed to higher layer, vector(packetBytes)"
vector 194 FanetGrayHole.host[19].wlan[0].mac rcvdPkFromLl:vector(packetBytes) ETV
attr interpolationmode none
attr source packetReceivedFromLower
attr title "packets received from lower layer, vector(packetBytes)"
vector 195 FanetGrayHole.host[19].wlan[0].mac passedUpPk:vector(packetBytes) ETV
attr interpolationmode none
attr source packetSentToUpper
attr title "packets passed to higher layer, vector(packetBytes)"
vector 196 FanetGrayHole.attacker[9].wlan[0].mac rcvdPkFromLl:vector(packetBytes) ETV
attr interpolationmode none
attr source packetReceivedFromLower
attr title "packets received from lower layer, vector(packetBytes)"
vector 197 FanetGrayHole.attacker[9].wlan[0].mac passedUpPk:vector(packetBytes) ETV
attr interpolationmode none
attr source packetSentToUpper
attr title "packets passed to higher layer, vector(packetBytes)"
vector 198 FanetGrayHole.host[3].wlan[0].mac rcvdPkFromLl:vector(packetBytes) ETV
attr interpolationmode none
attr source packetReceivedFromLower
attr title "packets received from lower layer, vector(packetBytes)"
vector 199 FanetGrayHole.host[3].wlan[0].mac passedUpPk:vector(packetBytes) ETV
attr interpolationmode none
attr source packetSentToUpper
attr title "packets passed to higher layer, vector(packetBytes)"
vector 200 FanetGrayHole.host[20].wlan[0].mac rcvdPkFromLl:vector(packetBytes) ETV
attr interpolationmode none
attr source packetReceivedFromLower
attr title "packets received from lower layer, vector(packetBytes)"
vector 201 FanetGrayHole.host[20].wlan[0].mac passedUpPk:vector(packetBytes) ETV
attr interpolationmode none
attr source packetSentToUpper
attr title "packets passed to higher layer, vector(packetBytes)"
vector 202 FanetGrayHole.attacker[5].wlan[0].mac rcvdPkFromHl:vector(packetBytes) ETV
attr interpolationmode none
attr source packetReceivedFromUpper
attr title "packets received from higher layer, vector(packetBytes)"
vector 203 FanetGrayHole.attacker[5].wlan[0].mac.queue packetPushed:vector(packetBytes) ETV
attr interpolationmode none
attr title "packet pushed, vector(packetBytes)"
vector 204 FanetGrayHole.attacker[5].wlan[0].mac.queue queueLength:vector ETV
attr interpolationmode sample-hold
attr source "count(packetPushed) - count(packetPopped) - count(packetRemoved) - count(packetDropped)"
attr title "queue length, vector"
vector 205 FanetGrayHole.attacker[5].wlan[0].mac.queue packetPopped:vector(packetBytes) ETV
attr interpolationmode none
attr title "packet popped, vector(packetBytes)"
vector 206 FanetGrayHole.attacker[5].wlan[0].mac.queue queueingTime:vector ETV
attr interpolationmode none
attr source queueingTime(packetPopped)
attr title "queueing times, vector"
attr unit s
vector 207 FanetGrayHole.attacker[5].wlan[0].mac sentDownPk:vector(packetBytes) ETV
attr interpolationmode none
attr source packetSentToLower
attr title "packets sent to lower layer, vector(packetBytes)"
vector 208 FanetGrayHole.attacker[23].wlan[0].mac rcvdPkFromLl:vector(packetBytes) ETV
attr interpolationmode none
attr source packetReceivedFromLower
attr title "packets received from lower layer, vector(packetBytes)"
vector 209 FanetGrayHole.attacker[23].wlan[0].mac passedUpPk:vector(packetBytes) ETV
attr interpolationmode none
attr source packetSentToUpper
attr title "packets passed to higher layer, vector(packetBytes)"
vector 210 FanetGrayHole.host[0].wlan[0].mac rcvdPkFromLl:vector(packetBytes) ETV
attr interpolationmode none
attr source packetReceivedFromLower
attr title "packets received from lower layer, vector(packetBytes)"
vector 211 FanetGrayHole.host[0].wlan[0].mac passedUpPk:vector(packetBytes) ETV
attr interpolationmode none
attr source packetSentToUpper
attr title "packets passed to higher layer, vector(packetBytes)"
vector 212 FanetGrayHole.host[9].wlan[0].mac rcvdPkFromLl:vector(packetBytes) ETV
attr interpolationmode none
attr source packetReceivedFromLower
attr title "packets received from lower layer, vector(packetBytes)"
vector 213 FanetGrayHole.host[9].wlan[0].mac passedUpPk:vector(packetBytes) ETV
attr interpolationmode none
attr source packetSentToUpper
attr title "packets passed to higher layer, vector(packetBytes)"
vector 214 FanetGrayHole.host[12].wlan[0].mac rcvdPkFromLl:vector(packetBytes) ETV
attr interpolationmode none
attr source packetReceivedFromLower
attr title "packets received from lower layer, vector(packetBytes)"
vector 215 FanetGrayHole.host[12].wlan[0].mac passedUpPk:vector(packetBytes) ETV
attr interpolationmode none
attr source packetSentToUpper
attr title "packets passed to higher layer, vector(packetBytes)"
vector 216 FanetGrayHole.attacker[18].wlan[0].mac rcvdPkFromLl:vector(packetBytes) ETV
attr interpolationmode none
attr source packetReceivedFromLower
attr title "packets received from lower layer, vector(packetBytes)"
vector 217 FanetGrayHole.attacker[18].wlan[0].mac passedUpPk:vector(packetBytes) ETV
attr interpolationmode none
attr source packetSentToUpper
attr title "packets passed to higher layer, vector(packetBytes)"
vector 218 FanetGrayHole.attacker[15].wlan[0].mac rcvdPkFromLl:vector(packetBytes) ETV
attr interpolationmode none
attr source packetReceivedFromLower
attr title "packets received from lower layer, vector(packetBytes)"
vector 219 FanetGrayHole.attacker[15].wlan[0].mac passedUpPk:vector(packetBytes) ETV
attr interpolationmode none
attr source packetSentToUpper
attr title "packets passed to higher layer, vector(packetBytes)"
vector 220 FanetGrayHole.attacker[2].wlan[0].mac rcvdPkFromLl:vector(packetBytes) ETV
attr interpolationmode none
attr source packetReceivedFromLower
attr title "packets received from lower layer, vector(packetBytes)"
vector 221 FanetGrayHole.attacker[2].wlan[0].mac passedUpPk:vector(packetBytes) ETV
attr interpolationmode none
attr source packetSentToUpper
attr title "packets passed to higher layer, vector(packetBytes)"
vector 222 FanetGrayHole.attacker[23].wlan[0].mac rcvdPkFromHl:vector(packetBytes) ETV
attr interpolationmode none
attr source packetReceivedFromUpper
attr title "packets received from higher layer, vector(packetBytes)"
vector 223 FanetGrayHole.attacker[23].wlan[0].mac.queue packetPushed:vector(packetBytes) ETV
attr interpolationmode none
attr title "packet pushed, vector(packetBytes)"
vector 224 FanetGrayHole.attacker[23].wlan[0].mac.queue queueLength:vector ETV
attr interpolationmode sample-hold
attr source "count(packetPushed) - count(packetPopped) - count(packetRemoved) - count(packetDropped)"
attr title "queue length, vector"
vector 225 FanetGrayHole.attacker[23].wlan[0].mac.queue packetPopped:vector(packetBytes) ETV
attr interpolationmode none
attr title "packet popped, vector(packetBytes)"
vector 226 FanetGrayHole.attacker[23].wlan[0].mac.queue queueingTime:vector ETV
attr interpolationmode none
attr source queueingTime(packetPopped)
attr title "queueing times, vector"
attr unit s
vector 227 FanetGrayHole.attacker[23].wlan[0].mac sentDownPk:vector(packetBytes) ETV
attr interpolationmode none
attr source packetSentToLower
attr title "packets sent to lower layer, vector(packetBytes)"
vector 228 FanetGrayHole.attacker[5].wlan[0].mac rcvdPkFromLl:vector(packetBytes) ETV
attr interpolationmode none
attr source packetReceivedFromLower
attr title "packets received from lower layer, vector(packetBytes)"
vector 229 FanetGrayHole.attacker[5].wlan[0].mac passedUpPk:vector(packetBytes) ETV
attr interpolationmode none
attr source packetSentToUpper
attr title "packets passed to higher layer, vector(packetBytes)"
vector 230 FanetGrayHole.attacker[12].wlan[0].mac rcvdPkFromHl:vector(packetBytes) ETV
attr interpolationmode none
attr source packetReceivedFromUpper
attr title "packets received from higher layer, vector(packetBytes)"
vector 231 FanetGrayHole.attacker[12].wlan[0].mac.queue packetPushed:vector(packetBytes) ETV
attr interpolationmode none
attr title "packet pushed, vector(packetBytes)"
vector 232 FanetGrayHole.attacker[12].wlan[0].mac.queue queueLength:vector ETV
attr interpolationmode sample-hold
attr source "count(packetPushed) - count(packetPopped) - count(packetRemoved) - count(packetDropped)"
attr title "queue length, vector"
vector 233 FanetGrayHole.attacker[12].wlan[0].mac.queue packetPopped:vector(packetBytes) ETV
attr interpolationmode none
attr title "packet popped, vector(packetBytes)"
vector 234 FanetGrayHole.attacker[12].wlan[0].mac.queue queueingTime:vector ETV
attr interpolationmode none
attr source queueingTime(packetPopped)
attr title "queueing times, vector"
attr unit s
vector 235 FanetGrayHole.attacker[12].wlan[0].mac sentDownPk:vector(packetBytes) ETV
attr interpolationmode none
attr source packetSentToLower
attr title "packets sent to lower layer, vector(packetBytes)"
vector 236 FanetGrayHole.host[6].wlan[0].mac rcvdPkFromLl:vector(packetBytes) ETV
attr interpolationmode none
attr source packetReceivedFromLower
attr title "packets received from lower layer, vector(packetBytes)"
vector 237 FanetGrayHole.host[6].wlan[0].mac passedUpPk:vector(packetBytes) ETV
attr interpolationmode none
attr source packetSentToUpper
attr title "packets passed to higher layer, vector(packetBytes)"
vector 238 FanetGrayHole.host[22].wlan[0].mac rcvdPkFromLl:vector(packetBytes) ETV
attr interpolationmode none
attr source packetReceivedFromLower
attr title "packets received from lower layer, vector(packetBytes)"
vector 239 FanetGrayHole.host[22].wlan[0].mac passedUpPk:vector(packetBytes) ETV
attr interpolationmode none
attr source packetSentToUpper
attr title "packets passed to higher layer, vector(packetBytes)"
vector 240 FanetGrayHole.host[17].wlan[0].mac rcvdPkFromHl:vector(packetBytes) ETV
attr interpolationmode none
attr source packetReceivedFromUpper
attr title "packets received from higher layer, vector(packetBytes)"
vector 241 FanetGrayHole.host[17].wlan[0].mac.queue packetPushed:vector(packetBytes) ETV
attr interpolationmode none
attr title "packet pushed, vector(packetBytes)"
vector 242 FanetGrayHole.host[17].wlan[0].mac.queue queueLength:vector ETV
attr interpolationmode sample-hold
attr source "count(packetPushed) - count(packetPopped) - count(packetRemoved) - count(packetDropped)"
attr title "queue length, vector"
vector 243 FanetGrayHole.host[17].wlan[0].mac.queue packetPopped:vector(packetBytes) ETV
attr interpolationmode none
attr title "packet popped, vector(packetBytes)"
vector 244 FanetGrayHole.host[17].wlan[0].mac.queue queueingTime:vector ETV
attr interpolationmode none
attr source queueingTime(packetPopped)
attr title "queueing times, vector"
attr unit s
vector 245 FanetGrayHole.host[17].wlan[0].mac sentDownPk:vector(packetBytes) ETV
attr interpolationmode none
attr source packetSentToLower
attr title "packets sent to lower layer, vector(packetBytes)"
vector 246 FanetGrayHole.attacker[24].wlan[0].mac rcvdPkFromLl:vector(packetBytes) ETV
attr interpolationmode none
attr source packetReceivedFromLower
attr title "packets received from lower layer, vector(packetBytes)"
vector 247 FanetGrayHole.attacker[24].wlan[0].mac passedUpPk:vector(packetBytes) ETV
attr interpolationmode none
attr source packetSentToUpper
attr title "packets passed to higher layer, vector(packetBytes)"
vector 248 FanetGrayHole.attacker[22].wlan[0].mac rcvdPkFromLl:vector(packetBytes) ETV
attr interpolationmode none
attr source packetReceivedFromLower
attr title "packets received from lower layer, vector(packetBytes)"
vector 249 FanetGrayHole.attacker[22].wlan[0].mac passedUpPk:vector(packetBytes) ETV
attr interpolationmode none
attr source packetSentToUpper
attr title "packets passed to higher layer, vector(packetBytes)"
vector 250 FanetGrayHole.host[5].wlan[0].mac rcvdPkFromLl:vector(packetBytes) ETV
attr interpolationmode none
attr source packetReceivedFromLower
attr title "packets received from lower layer, vector(packetBytes)"
vector 251 FanetGrayHole.host[5].wlan[0].mac passedUpPk:vector(packetBytes) ETV
attr interpolationmode none
attr source packetSentToUpper
attr title "packets passed to higher layer, vector(packetBytes)"
vector 252 FanetGrayHole.attacker[14].wlan[0].mac rcvdPkFromLl:vector(packetBytes) ETV
attr interpolationmode none
attr source packetReceivedFromLower
attr title "packets received from lower layer, vector(packetBytes)"
vector 253 FanetGrayHole.attacker[14].wlan[0].mac passedUpPk:vector(packetBytes) ETV
attr interpolationmode none
attr source packetSentToUpper
attr title "packets passed to higher layer, vector(packetBytes)"
vector 254 FanetGrayHole.attacker[16].wlan[0].mac rcvdPkFromLl:vector(packetBytes) ETV
attr interpolationmode none
attr source packetReceivedFromLower
attr title "packets received from lower layer, vector(packetBytes)"
vector 255 FanetGrayHole.attacker[16].wlan[0].mac passedUpPk:vector(packetBytes) ETV
attr interpolationmode none
attr source packetSentToUpper
attr title "packets passed to higher layer, vector(packetBytes)"
vector 256 FanetGrayHole.attacker[19].wlan[0].mac rcvdPkFromLl:vector(packetBytes) ETV
attr interpolationmode none
attr source packetReceivedFromLower
attr title "packets received from lower layer, vector(packetBytes)"
vector 257 FanetGrayHole.attacker[19].wlan[0].mac passedUpPk:vector(packetBytes) ETV
attr interpolationmode none
attr source packetSentToUpper
attr title "packets passed to higher layer, vector(packetBytes)"
vector 258 FanetGrayHole.host[13].wlan[0].mac rcvdPkFromHl:vector(packetBytes) ETV
attr interpolationmode none
attr source packetReceivedFromUpper
attr title "packets received from higher layer, vector(packetBytes)"
vector 259 FanetGrayHole.host[13].wlan[0].mac.queue packetPushed:vector(packetBytes) ETV
attr interpolationmode none
attr title "packet pushed, vector(packetBytes)"
vector 260 FanetGrayHole.host[13].wlan[0].mac.queue queueLength:vector ETV
attr interpolationmode sample-hold
attr source "count(packetPushed) - count(packetPopped) - count(packetRemoved) - count(packetDropped)"
attr title "queue length, vector"
vector 261 FanetGrayHole.host[13].wlan[0].mac.queue packetPopped:vector(packetBytes) ETV
attr interpolationmode none
attr title "packet popped, vector(packetBytes)"
vector 262 FanetGrayHole.host[13].wlan[0].mac.queue queueingTime:vector ETV
attr interpolationmode none
attr source queueingTime(packetPopped)
attr title "queueing times, vector"
attr unit s
vector 263 FanetGrayHole.host[13].wlan[0].mac sentDownPk:vector(packetBytes) ETV
attr interpolationmode none
attr source packetSentToLower
attr title "packets sent to lower layer, vector(packetBytes)"
vector 264 FanetGrayHole.attacker[4].wlan[0].mac rcvdPkFromHl:vector(packetBytes) ETV
attr interpolationmode none
attr source packetReceivedFromUpper
attr title "packets received from higher layer, vector(packetBytes)"
vector 265 FanetGrayHole.attacker[4].wlan[0].mac.queue packetPushed:vector(packetBytes) ETV
attr interpolationmode none
attr title "packet pushed, vector(packetBytes)"
vector 266 FanetGrayHole.attacker[4].wlan[0].mac.queue queueLength:vector ETV
attr interpolationmode sample-hold
attr source "count(packetPushed) - count(packetPopped) - count(packetRemoved) - count(packetDropped)"
attr title "queue length, vector"
vector 267 FanetGrayHole.attacker[4].wlan[0].mac.queue packetPopped:vector(packetBytes) ETV
attr interpolationmode none
attr title "packet popped, vector(packetBytes)"
vector 268 FanetGrayHole.attacker[4].wlan[0].mac.queue queueingTime:vector ETV
attr interpolationmode none
attr source queueingTime(packetPopped)
attr title "queueing times, vector"
attr unit s
vector 269 FanetGrayHole.attacker[4].wlan[0].mac sentDownPk:vector(packetBytes) ETV
attr interpolationmode none
attr source packetSentToLower
attr title "packets sent to lower layer, vector(packetBytes)"
vector 270 FanetGrayHole.host[1].wlan[0].mac rcvdPkFromLl:vector(packetBytes) ETV
attr interpolationmode none
attr source packetReceivedFromLower
attr title "packets received from lower layer, vector(packetBytes)"
vector 271 FanetGrayHole.host[1].wlan[0].mac passedUpPk:vector(packetBytes) ETV
attr interpolationmode none
attr source packetSentToUpper
attr title "packets passed to higher layer, vector(packetBytes)"
vector 272 FanetGrayHole.host[13].wlan[0].mac rcvdPkFromLl:vector(packetBytes) ETV
attr interpolationmode none
attr source packetReceivedFromLower
attr title "packets received from lower layer, vector(packetBytes)"
vector 273 FanetGrayHole.host[13].wlan[0].mac passedUpPk:vector(packetBytes) ETV
attr interpolationmode none
attr source packetSentToUpper
attr title "packets passed to higher layer, vector(packetBytes)"
vector 274 FanetGrayHole.attacker[8].wlan[0].mac rcvdPkFromHl:vector(packetBytes) ETV
attr interpolationmode none
attr source packetReceivedFromUpper
attr title "packets received from higher layer, vector(packetBytes)"
vector 275 FanetGrayHole.attacker[8].wlan[0].mac.queue packetPushed:vector(packetBytes) ETV
attr interpolationmode none
attr title "packet pushed, vector(packetBytes)"
vector 276 FanetGrayHole.attacker[8].wlan[0].mac.queue queueLength:vector ETV
attr interpolationmode sample-hold
attr source "count(packetPushed) - count(packetPopped) - count(packetRemoved) - count(packetDropped)"
attr title "queue length, vector"
vector 277 FanetGrayHole.attacker[8].wlan[0].mac.queue packetPopped:vector(packetBytes) ETV
attr interpolationmode none
attr title "packet popped, vector(packetBytes)"
vector 278 FanetGrayHole.attacker[8].wlan[0].mac.queue queueingTime:vector ETV
attr interpolationmode none
attr source queueingTime(packetPopped)
attr title "queueing times, vector"
attr unit s
vector 279 FanetGrayHole.attacker[8].wlan[0].mac sentDownPk:vector(packetBytes) ETV
attr interpolationmode none
attr source packetSentToLower
attr title "packets sent to lower layer, vector(packetBytes)"
vector 280 FanetGrayHole.host[18].wlan[0].mac rcvdPkFromHl:vector(packetBytes) ETV
attr interpolationmode none
attr source packetReceivedFromUpper
attr title "packets received from higher layer, vector(packetBytes)"
vector 281 FanetGrayHole.host[18].wlan[0].mac.queue packetPushed:vector(packetBytes) ETV
attr interpolationmode none
attr title "packet pushed, vector(packetBytes)"
vector 282 FanetGrayHole.host[18].wlan[0].mac.queue queueLength:vector ETV
attr interpolationmode sample-hold
attr source "count(packetPushed) - count(packetPopped) - count(packetRemoved) - count(packetDropped)"
attr title "queue length, vector"
vector 283 FanetGrayHole.host[18].wlan[0].mac.queue packetPopped:vector(packetBytes) ETV
attr interpolationmode none
attr title "packet popped, vector(packetBytes)"
vector 284 FanetGrayHole.host[18].wlan[0].mac.queue queueingTime:vector ETV
attr interpolationmode none
attr source queueingTime(packetPopped)
attr title "queueing times, vector"
attr unit s
vector 285 FanetGrayHole.host[18].wlan[0].mac sentDownPk:vector(packetBytes) ETV
attr interpolationmode none
attr source packetSentToLower
attr title "packets sent to lower layer, vector(packetBytes)"
vector 286 FanetGrayHole.host[11].wlan[0].mac rcvdPkFromHl:vector(packetBytes) ETV
attr interpolationmode none
attr source packetReceivedFromUpper
attr title "packets received from higher layer, vector(packetBytes)"
vector 287 FanetGrayHole.host[11].wlan[0].mac.queue packetPushed:vector(packetBytes) ETV
attr interpolationmode none
attr title "packet pushed, vector(packetBytes)"
vector 288 FanetGrayHole.host[11].wlan[0].mac.queue queueLength:vector ETV
attr interpolationmode sample-hold
attr source "count(packetPushed) - count(packetPopped) - count(packetRemoved) - count(packetDropped)"
attr title "queue length, vector"
vector 289 FanetGrayHole.host[11].wlan[0].mac.queue packetPopped:vector(packetBytes) ETV
attr interpolationmode none
attr title "packet popped, vector(packetBytes)"
vector 290 FanetGrayHole.host[11].wlan[0].mac.queue queueingTime:vector ETV
attr interpolationmode none
attr source queueingTime(packetPopped)
attr title "queueing times, vector"
attr unit s
vector 291 FanetGrayHole.host[11].wlan[0].mac sentDownPk:vector(packetBytes) ETV
attr interpolationmode none
attr source packetSentToLower
attr title "packets sent to lower layer, vector(packetBytes)"
vector 292 FanetGrayHole.host[23].wlan[0].mac rcvdPkFromLl:vector(packetBytes) ETV
attr interpolationmode none
attr source packetReceivedFromLower
attr title "packets received from lower layer, vector(packetBytes)"
vector 293 FanetGrayHole.host[23].wlan[0].mac passedUpPk:vector(packetBytes) ETV
attr interpolationmode none
attr source packetSentToUpper
attr title "packets passed to higher layer, vector(packetBytes)"
vector 294 FanetGrayHole.attacker[20].wlan[0].mac rcvdPkFromLl:vector(packetBytes) ETV
attr interpolationmode none
attr source packetReceivedFromLower
attr title "packets received from lower layer, vector(packetBytes)"
vector 295 FanetGrayHole.attacker[20].wlan[0].mac passedUpPk:vector(packetBytes) ETV
attr interpolationmode none
attr source packetSentToUpper
attr title "packets passed to higher layer, vector(packetBytes)"
vector 296 FanetGrayHole.attacker[0].wlan[0].mac rcvdPkFromHl:vector(packetBytes) ETV
attr interpolationmode none
attr source packetReceivedFromUpper
attr title "packets received from higher layer, vector(packetBytes)"
vector 297 FanetGrayHole.attacker[0].wlan[0].mac.queue packetPushed:vector(packetBytes) ETV
attr interpolationmode none
attr title "packet pushed, vector(packetBytes)"
vector 298 FanetGrayHole.attacker[0].wlan[0].mac.queue queueLength:vector ETV
attr interpolationmode sample-hold
attr source "count(packetPushed) - count(packetPopped) - count(packetRemoved) - count(packetDropped)"
attr title "queue length, vector"
vector 299 FanetGrayHole.attacker[0].wlan[0].mac.queue packetPopped:vector(packetBytes) ETV
attr interpolationmode none
attr title "packet popped, vector(packetBytes)"
vector 300 FanetGrayHole.attacker[0].wlan[0].mac.queue queueingTime:vector ETV
attr interpolationmode none
attr source queueingTime(packetPopped)
attr title "queueing times, vector"
attr unit s
vector 301 FanetGrayHole.attacker[0].wlan[0].mac sentDownPk:vector(packetBytes) ETV
attr interpolationmode none
attr source packetSentToLower
attr title "packets sent to lower layer, vector(packetBytes)"
vector 302 FanetGrayHole.attacker[17].wlan[0].mac rcvdPkFromLl:vector(packetBytes) ETV
attr interpolationmode none
attr source packetReceivedFromLower
attr title "packets received from lower layer, vector(packetBytes)"
vector 303 FanetGrayHole.attacker[17].wlan[0].mac passedUpPk:vector(packetBytes) ETV
attr interpolationmode none
attr source packetSentToUpper
attr title "packets passed to higher layer, vector(packetBytes)"
vector 304 FanetGrayHole.host[8].wlan[0].mac rcvdPkFromHl:vector(packetBytes) ETV
attr interpolationmode none
attr source packetReceivedFromUpper
attr title "packets received from higher layer, vector(packetBytes)"
vector 305 FanetGrayHole.host[8].wlan[0].mac.queue packetPushed:vector(packetBytes) ETV
attr interpolationmode none
attr title "packet pushed, vector(packetBytes)"
vector 306 FanetGrayHole.host[8].wlan[0].mac.queue queueLength:vector ETV
attr interpolationmode sample-hold
attr source "count(packetPushed) - count(packetPopped) - count(packetRemoved) - count(packetDropped)"
attr title "queue length, vector"
vector 307 FanetGrayHole.host[8].wlan[0].mac.queue packetPopped:vector(packetBytes) ETV
attr interpolationmode none
attr title "packet popped, vector(packetBytes)"
vector 308 FanetGrayHole.host[8].wlan[0].mac.queue queueingTime:vector ETV
attr interpolationmode none
attr source queueingTime(packetPopped)
attr title "queueing times, vector"
attr unit s
vector 309 FanetGrayHole.host[8].wlan[0].mac sentDownPk:vector(packetBytes) ETV
attr interpolationmode none
attr source packetSentToLower
attr title "packets sent to lower layer, vector(packetBytes)"
vector 310 FanetGrayHole.host[12].wlan[0].mac rcvdPkFromHl:vector(packetBytes) ETV
attr interpolationmode none
attr source packetReceivedFromUpper
attr title "packets received from higher layer, vector(packetBytes)"
vector 311 FanetGrayHole.host[12].wlan[0].mac.queue packetPushed:vector(packetBytes) ETV
attr interpolationmode none
attr title "packet pushed, vector(packetBytes)"
vector 312 FanetGrayHole.host[12].wlan[0].mac.queue queueLength:vector ETV
attr interpolationmode sample-hold
attr source "count(packetPushed) - count(packetPopped) - count(packetRemoved) - count(packetDropped)"
attr title "queue length, vector"
vector 313 FanetGrayHole.host[12].wlan[0].mac.queue packetPopped:vector(packetBytes) ETV
attr interpolationmode none
attr title "packet popped, vector(packetBytes)"
vector 314 FanetGrayHole.host[12].wlan[0].mac.queue queueingTime:vector ETV
attr interpolationmode none
attr source queueingTime(packetPopped)
attr title "queueing times, vector"
attr unit s
vector 315 FanetGrayHole.host[12].wlan[0].mac sentDownPk:vector(packetBytes) ETV
attr interpolationmode none
attr source packetSentToLower
attr title "packets sent to lower layer, vector(packetBytes)"
vector 316 FanetGrayHole.attacker[19].wlan[0].mac rcvdPkFromHl:vector(packetBytes) ETV
attr interpolationmode none
attr source packetReceivedFromUpper
attr title "packets received from higher layer, vector(packetBytes)"
vector 317 FanetGrayHole.attacker[19].wlan[0].mac.queue packetPushed:vector(packetBytes) ETV
attr interpolationmode none
attr title "packet pushed, vector(packetBytes)"
vector 318 FanetGrayHole.attacker[19].wlan[0].mac.queue queueLength:vector ETV
attr interpolationmode sample-hold
attr source "count(packetPushed) - count(packetPopped) - count(packetRemoved) - count(packetDropped)"
attr title "queue length, vector"
vector 319 FanetGrayHole.attacker[19].wlan[0].mac.queue packetPopped:vector(packetBytes) ETV
attr interpolationmode none
attr title "packet popped, vector(packetBytes)"
vector 320 FanetGrayHole.attacker[19].wlan[0].mac.queue queueingTime:vector ETV
attr interpolationmode none
attr source queueingTime(packetPopped)
attr title "queueing times, vector"
attr unit s
vector 321 FanetGrayHole.attacker[19].wlan[0].mac sentDownPk:vector(packetBytes) ETV
attr interpolationmode none
attr source packetSentToLower
attr title "packets sent to lower layer, vector(packetBytes)"
vector 322 FanetGrayHole.host[10].wlan[0].mac rcvdPkFromLl:vector(packetBytes) ETV
attr interpolationmode none
attr source packetReceivedFromLower
attr title "packets received from lower layer, vector(packetBytes)"
vector 323 FanetGrayHole.host[10].wlan[0].mac passedUpPk:vector(packetBytes) ETV
attr interpolationmode none
attr source packetSentToUpper
attr title "packets passed to higher layer, vector(packetBytes)"
vector 324 FanetGrayHole.host[17].wlan[0].mac rcvdPkFromLl:vector(packetBytes) ETV
attr interpolationmode none
attr source packetReceivedFromLower
attr title "packets received from lower layer, vector(packetBytes)"
vector 325 FanetGrayHole.host[17].wlan[0].mac passedUpPk:vector(packetBytes) ETV
attr interpolationmode none
attr source packetSentToUpper
attr title "packets passed to higher layer, vector(packetBytes)"
vector 326 FanetGrayHole.attacker[16].wlan[0].mac rcvdPkFromHl:vector(packetBytes) ETV
attr interpolationmode none
attr source packetReceivedFromUpper
attr title "packets received from higher layer, vector(packetBytes)"
vector 327 FanetGrayHole.attacker[16].wlan[0].mac.queue packetPushed:vector(packetBytes) ETV
attr interpolationmode none
attr title "packet pushed, vector(packetBytes)"
vector 328 FanetGrayHole.attacker[16].wlan[0].mac.queue queueLength:vector ETV
attr interpolationmode sample-hold
attr source "count(packetPushed) - count(packetPopped) - count(packetRemoved) - count(packetDropped)"
attr title "queue length, vector"
vector 329 FanetGrayHole.attacker[16].wlan[0].mac.queue packetPopped:vector(packetBytes) ETV
attr interpolationmode none
attr title "packet popped, vector(packetBytes)"
vector 330 FanetGrayHole.attacker[16].wlan[0].mac.queue queueingTime:vector ETV
attr interpolationmode none
attr source queueingTime(packetPopped)
attr title "queueing times, vector"
attr unit s
vector 331 FanetGrayHole.attacker[16].wlan[0].mac sentDownPk:vector(packetBytes) ETV
attr interpolationmode none
attr source packetSentToLower
attr title "packets sent to lower layer, vector(packetBytes)"
vector 332 FanetGrayHole.attacker[3].wlan[0].mac rcvdPkFromLl:vector(packetBytes) ETV
attr interpolationmode none
attr source packetReceivedFromLower
attr title "packets received from lower layer, vector(packetBytes)"
vector 333 FanetGrayHole.attacker[3].wlan[0].mac passedUpPk:vector(packetBytes) ETV
attr interpolationmode none
attr source packetSentToUpper
attr title "packets passed to higher layer, vector(packetBytes)"
vector 334 FanetGrayHole.host[19].wlan[0].mac rcvdPkFromHl:vector(packetBytes) ETV
attr interpolationmode none
attr source packetReceivedFromUpper
attr title "packets received from higher layer, vector(packetBytes)"
vector 335 FanetGrayHole.host[19].wlan[0].mac.queue packetPushed:vector(packetBytes) ETV
attr interpolationmode none
attr title "packet pushed, vector(packetBytes)"
vector 336 FanetGrayHole.host[19].wlan[0].mac.queue queueLength:vector ETV
attr interpolationmode sample-hold
attr source "count(packetPushed) - count(packetPopped) - count(packetRemoved) - count(packetDropped)"
attr title "queue length, vector"
vector 337 FanetGrayHole.host[19].wlan[0].mac.queue packetPopped:vector(packetBytes) ETV
attr interpolationmode none
attr title "packet popped, vector(packetBytes)"
vector 338 FanetGrayHole.host[19].wlan[0].mac.queue queueingTime:vector ETV
attr interpolationmode none
attr source queueingTime(packetPopped)
attr title "queueing times, vector"
attr unit s
vector 339 FanetGrayHole.host[19].wlan[0].mac sentDownPk:vector(packetBytes) ETV
attr interpolationmode none
attr source packetSentToLower
attr title "packets sent to lower layer, vector(packetBytes)"
vector 340 FanetGrayHole.host[23].wlan[0].mac rcvdPkFromHl:vector(packetBytes) ETV
attr interpolationmode none
attr source packetReceivedFromUpper
attr title "packets received from higher layer, vector(packetBytes)"
vector 341 FanetGrayHole.host[23].wlan[0].mac.queue packetPushed:vector(packetBytes) ETV
attr interpolationmode none
attr title "packet pushed, vector(packetBytes)"
vector 342 FanetGrayHole.host[23].wlan[0].mac.queue queueLength:vector ETV
attr interpolationmode sample-hold
attr source "count(packetPushed) - count(packetPopped) - count(packetRemoved) - count(packetDropped)"
attr title "queue length, vector"
vector 343 FanetGrayHole.host[23].wlan[0].mac.queue packetPopped:vector(packetBytes) ETV
attr interpolationmode none
attr title "packet popped, vector(packetBytes)"
vector 344 FanetGrayHole.host[23].wlan[0].mac.queue queueingTime:vector ETV
attr interpolationmode none
attr source queueingTime(packetPopped)
attr title "queueing times, vector"
attr unit s
vector 345 FanetGrayHole.host[23].wlan[0].mac sentDownPk:vector(packetBytes) ETV
attr interpolationmode none
attr source packetSentToLower
attr title "packets sent to lower layer, vector(packetBytes)"
vector 346 FanetGrayHole.host[11].wlan[0].mac rcvdPkFromLl:vector(packetBytes) ETV
attr interpolationmode none
attr source packetReceivedFromLower
attr title "packets received from lower layer, vector(packetBytes)"
vector 347 FanetGrayHole.host[11].wlan[0].mac passedUpPk:vector(packetBytes) ETV
attr interpolationmode none
attr source packetSentToUpper
attr title "packets passed to higher layer, vector(packetBytes)"
vector 348 FanetGrayHole.attacker[20].wlan[0].mac rcvdPkFromHl:vector(packetBytes) ETV
attr interpolationmode none
attr source packetReceivedFromUpper
attr title "packets received from higher layer, vector(packetBytes)"
vector 349 FanetGrayHole.attacker[20].wlan[0].mac.queue packetPushed:vector(packetBytes) ETV
attr interpolationmode none
attr title "packet pushed, vector(packetBytes)"
vector 350 FanetGrayHole.attacker[20].wlan[0].mac.queue queueLength:vector ETV
attr interpolationmode sample-hold
attr source "count(packetPushed) - count(packetPopped) - count(packetRemoved) - count(packetDropped)"
attr title "queue length, vector"
vector 351 FanetGrayHole.attacker[20].wlan[0].mac.queue packetPopped:vector(packetBytes) ETV
attr interpolationmode none
attr title "packet popped, vector(packetBytes)"
vector 352 FanetGrayHole.attacker[20].wlan[0].mac.queue queueingTime:vector ETV
attr interpolationmode none
attr source queueingTime(packetPopped)
attr title "queueing times, vector"
attr unit s
vector 353 FanetGrayHole.attacker[20].wlan[0].mac sentDownPk:vector(packetBytes) ETV
attr interpolationmode none
attr source packetSentToLower
attr title "packets sent to lower layer, vector(packetBytes)"
vector 354 FanetGrayHole.host[22].wlan[0].mac rcvdPkFromHl:vector(packetBytes) ETV
attr interpolationmode none
attr source packetReceivedFromUpper
attr title "packets received from higher layer, vector(packetBytes)"
vector 355 FanetGrayHole.host[22].wlan[0].mac.queue packetPushed:vector(packetBytes) ETV
attr interpolationmode none
attr title "packet pushed, vector(packetBytes)"
vector 356 FanetGrayHole.host[22].wlan[0].mac.queue queueLength:vector ETV
attr interpolationmode sample-hold
attr source "count(packetPushed) - count(packetPopped) - count(packetRemoved) - count(packetDropped)"
attr title "queue length, vector"
vector 357 FanetGrayHole.host[22].wlan[0].mac.queue packetPopped:vector(packetBytes) ETV
attr interpolationmode none
attr title "packet popped, vector(packetBytes)"
vector 358 FanetGrayHole.host[22].wlan[0].mac.queue queueingTime:vector ETV
attr interpolationmode none
attr source queueingTime(packetPopped)
attr title "queueing times, vector"
attr unit s
vector 359 FanetGrayHole.host[22].wlan[0].mac sentDownPk:vector(packetBytes) ETV
attr interpolationmode none
attr source packetSentToLower
attr title "packets sent to lower layer, vector(packetBytes)"
vector 360 FanetGrayHole.attacker[12].wlan[0].mac rcvdPkFromLl:vector(packetBytes) ETV
attr interpolationmode none
attr source packetReceivedFromLower
attr title "packets received from lower layer, vector(packetBytes)"
vector 361 FanetGrayHole.attacker[12].wlan[0].mac passedUpPk:vector(packetBytes) ETV
attr interpolationmode none
attr source packetSentToUpper
attr title "packets passed to higher layer, vector(packetBytes)"
vector 362 FanetGrayHole.host[6].wlan[0].mac rcvdPkFromHl:vector(packetBytes) ETV
attr interpolationmode none
attr source packetReceivedFromUpper
attr title "packets received from higher layer, vector(packetBytes)"
vector 363 FanetGrayHole.host[6].wlan[0].mac.queue packetPushed:vector(packetBytes) ETV
attr interpolationmode none
attr title "packet pushed, vector(packetBytes)"
vector 364 FanetGrayHole.host[6].wlan[0].mac.queue queueLength:vector ETV
attr interpolationmode sample-hold
attr source "count(packetPushed) - count(packetPopped) - count(packetRemoved) - count(packetDropped)"
attr title "queue length, vector"
vector 365 FanetGrayHole.host[6].wlan[0].mac.queue packetPopped:vector(packetBytes) ETV
attr interpolationmode none
attr title "packet popped, vector(packetBytes)"
vector 366 FanetGrayHole.host[6].wlan[0].mac.queue queueingTime:vector ETV
attr interpolationmode none
attr source queueingTime(packetPopped)
attr title "queueing times, vector"
attr unit s
vector 367 FanetGrayHole.host[6].wlan[0].mac sentDownPk:vector(packetBytes) ETV
attr interpolationmode none
attr source packetSentToLower
attr title "packets sent to lower layer, vector(packetBytes)"
vector 368 FanetGrayHole.host[0].wlan[0].mac rcvdPkFromHl:vector(packetBytes) ETV
attr interpolationmode none
attr source packetReceivedFromUpper
attr title "packets received from higher layer, vector(packetBytes)"
vector 369 FanetGrayHole.host[0].wlan[0].mac.queue packetPushed:vector(packetBytes) ETV
attr interpolationmode none
attr title "packet pushed, vector(packetBytes)"
vector 370 FanetGrayHole.host[0].wlan[0].mac.queue queueLength:vector ETV
attr interpolationmode sample-hold
attr source "count(packetPushed) - count(packetPopped) - count(packetRemoved) - count(packetDropped)"
attr title "queue length, vector"
vector 371 FanetGrayHole.host[0].wlan[0].mac.queue packetPopped:vector(packetBytes) ETV
attr interpolationmode none
attr title "packet popped, vector(packetBytes)"
vector 372 FanetGrayHole.host[0].wlan[0].mac.queue queueingTime:vector ETV
attr interpolationmode none
attr source queueingTime(packetPopped)
attr title "queueing times, vector"
attr unit s
vector 373 FanetGrayHole.host[0].wlan[0].mac sentDownPk:vector(packetBytes) ETV
attr interpolationmode none
attr source packetSentToLower
attr title "packets sent to lower layer, vector(packetBytes)"
vector 374 FanetGrayHole.host[24].wlan[0].mac rcvdPkFromHl:vector(packetBytes) ETV
attr interpolationmode none
attr source packetReceivedFromUpper
attr title "packets received from higher layer, vector(packetBytes)"
vector 375 FanetGrayHole.host[24].wlan[0].mac.queue packetPushed:vector(packetBytes) ETV
attr interpolationmode none
attr title "packet pushed, vector(packetBytes)"
vector 376 FanetGrayHole.host[24].wlan[0].mac.queue queueLength:vector ETV
attr interpolationmode sample-hold
attr source "count(packetPushed) - count(packetPopped) - count(packetRemoved) - count(packetDropped)"
attr title "queue length, vector"
vector 377 FanetGrayHole.host[24].wlan[0].mac.queue packetPopped:vector(packetBytes) ETV
attr interpolationmode none
attr title "packet popped, vector(packetBytes)"
vector 378 FanetGrayHole.host[24].wlan[0].mac.queue queueingTime:vector ETV
attr interpolationmode none
attr source queueingTime(packetPopped)
attr title "queueing times, vector"
attr unit s
vector 379 FanetGrayHole.host[24].wlan[0].mac sentDownPk:vector(packetBytes) ETV
attr interpolationmode none
attr source packetSentToLower
attr title "packets sent to lower layer, vector(packetBytes)"
vector 380 FanetGrayHole.host[21].wlan[0].mac rcvdPkFromLl:vector(packetBytes) ETV
attr interpolationmode none
attr source packetReceivedFromLower
attr title "packets received from lower layer, vector(packetBytes)"
vector 381 FanetGrayHole.host[21].wlan[0].mac passedUpPk:vector(packetBytes) ETV
attr interpolationmode none
attr source packetSentToUpper
attr title "packets passed to higher layer, vector(packetBytes)"
vector 382 FanetGrayHole.host[14].wlan[0].mac rcvdPkFromLl:vector(packetBytes) ETV
attr interpolationmode none
attr source packetReceivedFromLower
attr title "packets received from lower layer, vector(packetBytes)"
vector 383 FanetGrayHole.host[14].wlan[0].mac passedUpPk:vector(packetBytes) ETV
attr interpolationmode none
attr source packetSentToUpper
attr title "packets passed to higher layer, vector(packetBytes)"
vector 384 FanetGrayHole.host[1].wlan[0].mac rcvdPkFromHl:vector(packetBytes) ETV
attr interpolationmode none
attr source packetReceivedFromUpper
attr title "packets received from higher layer, vector(packetBytes)"
[...]
607	618568	393.8	0
607	618568	393.9	0
607	618568	394	0
607	618568	394.1	0
607	618568	394.2	0
607	618568	394.3	0
607	618568	394.4	0
607	618568	394.5	0
607	618568	394.6	0
607	618568	394.7	0
607	618568	394.8	0
607	618568	394.9	0
607	618568	395	0
607	618568	395.1	0
607	618568	395.2	0
607	618568	395.3	0
607	618568	395.4	0
607	618568	395.5	0
607	618568	395.6	0
607	618568	395.7	0
607	618568	395.8	0
607	618568	395.9	0
607	618568	396	0
607	618568	396.1	0
607	618568	396.2	0
607	618568	396.3	0
607	618568	396.4	0
607	618568	396.5	0
607	618568	396.6	0
607	618568	396.7	0
607	618568	396.8	0
607	618568	396.9	0
607	618568	397	0
607	618568	397.1	0
607	618568	397.2	0
607	618568	397.3	0
607	618568	397.4	0
607	618568	397.5	0
607	618568	397.6	0
607	618568	397.7	0
607	618568	397.8	0
607	618568	397.9	0
607	618568	398	0
607	618568	398.1	0
607	618568	398.2	0
607	618568	398.3	0
607	618568	398.4	0
607	618568	398.5	0
607	618568	398.6	0
607	618568	398.7	0
607	618568	398.8	0
607	618568	398.9	0
607	618568	399	0
607	618568	399.1	0
607	618568	399.2	0
607	618568	399.3	0
607	618568	399.4	0
607	618568	399.5	0
607	618568	399.6	0
607	618568	399.7	0
607	618568	399.8	0
607	618568	399.9	0
607	618568	400	0
607	618568	400.1	0
607	618568	400.2	0
607	618568	400.3	0
607	618568	400.4	0
607	618568	400.5	0
607	618568	400.6	0
607	618568	400.7	0
607	618568	400.8	0
607	618568	400.9	0
607	618568	401	0
607	618568	401.1	0
607	618568	401.2	0
607	618568	401.3	0
607	618568	401.4	0
607	618568	401.5	0
607	618568	401.6	0
607	618568	401.7	0
607	618568	401.8	0
607	618568	401.9	0
607	618568	402	0
607	618568	402.1	0
607	618568	402.2	0
607	618568	402.3	0
607	618568	402.4	0
607	618568	402.5	0
607	618568	402.6	0
607	618568	402.7	0
607	618568	402.8	0
607	618568	402.9	0
607	618568	403	0
607	618568	403.1	0
607	618568	403.2	0
607	618568	403.3	0
607	618568	403.4	0
607	618568	403.5	0
607	618568	403.6	0
607	618568	403.7	0
607	618568	403.8	0
607	618568	403.9	0
607	618568	404	0
607	618568	404.1	0
607	618568	404.2	0
607	618568	404.3	0
607	618568	404.4	0
607	618568	404.5	0
607	618568	404.6	0
607	618568	404.7	0
607	618568	404.8	0
607	618568	404.9	0
607	618568	405	0
607	618568	405.1	0
607	618568	405.2	0
607	618568	405.3	0
607	618568	405.4	0
607	618568	405.5	0
607	618568	405.6	0
607	618568	405.7	0
607	618568	405.8	0
607	618568	405.9	0
607	618568	406	0
607	618568	406.1	0
607	618568	406.2	0
607	618568	406.3	0
607	618568	406.4	0
607	618568	406.5	0
607	618568	406.6	0
607	618568	406.7	0
607	618568	406.8	0
607	618568	406.9	0
607	618568	407	0
607	618568	407.1	0
607	618568	407.2	0
607	618568	407.3	0
607	618568	407.4	0
607	618568	407.5	0
607	618568	407.6	0
607	618568	407.7	0
607	618568	407.8	0
607	618568	407.9	0
607	618568	408	0
607	618568	408.1	0
607	618568	408.2	0
607	618568	408.3	0
607	618568	408.4	0
607	618568	408.5	0
607	618568	408.6	0
607	618568	408.7	0
607	618568	408.8	0
607	618568	408.9	0
607	618568	409	0
607	618568	409.1	0
607	618568	409.2	0
607	618568	409.3	0
607	618568	409.4	0
607	618568	409.5	0
607	618568	409.6	0
607	618568	409.7	0
607	618568	409.8	0
607	618568	409.9	0
607	618568	410	0
607	618568	410.1	0
607	618568	410.2	0
607	618568	410.3	0
607	618568	410.4	0
607	618568	410.5	0
607	618568	410.6	0
607	618568	410.7	0
607	618568	410.8	0
607	618568	410.9	0
607	618568	411	0
607	618568	411.1	0
607	618568	411.2	0
607	618568	411.3	0
607	618568	411.4	0
607	618568	411.5	0
607	618568	411.6	0
607	618568	411.7	0
607	618568	411.8	0
607	618568	411.9	0
607	618568	412	0
607	618568	412.1	0
607	618568	412.2	0
607	618568	412.3	0
607	618568	412.4	0
607	618568	412.5	0
607	618568	412.6	0
607	618568	412.7	0
607	618568	412.8	0
607	618568	412.9	0
607	618568	413	0
607	618568	413.1	0
607	618568	413.2	0
607	618568	413.3	0
607	618568	413.4	0
607	618568	413.5	0
607	618568	413.6	0
607	618568	413.7	0
607	618568	413.8	0
607	618568	413.9	0
607	618568	414	0
607	618568	414.1	0
607	618568	414.2	0
607	618568	414.3	0
607	618568	414.4	0
607	618568	414.5	0
607	618568	414.6	0
607	618568	414.7	0
607	618568	414.8	0
607	618568	414.9	0
607	618568	415	0
607	618568	415.1	0
607	618568	415.2	0
607	618568	415.3	0
607	618568	415.4	0
607	618568	415.5	0
607	618568	415.6	0
607	618568	415.7	0
607	618568	415.8	0
607	618568	415.9	0
607	618568	416	0
607	618568	416.1	0
607	618568	416.2	0
607	618568	416.3	0
607	618568	416.4	0
607	618568	416.5	0
607	618568	416.6	0
607	618568	416.7	0
607	618568	416.8	0
607	618568	416.9	0
607	618568	417	0
607	618568	417.1	0
607	618568	417.2	0
607	618568	417.3	0
607	618568	417.4	0
607	618568	417.5	0
607	618568	417.6	0
607	618568	417.7	0
607	618568	417.8	0
607	618568	417.9	0
607	618568	418	0
607	618568	418.1	0
607	618568	418.2	0
607	618568	418.3	0
607	618568	418.4	0
607	618568	418.5	0
607	618568	418.6	0
607	618568	418.7	0
607	618568	418.8	0
607	618568	418.9	0
607	618568	419	0
607	618568	419.1	0
607	618568	419.2	0
607	618568	419.3	0
607	618568	419.4	0
607	618568	419.5	0
607	618568	419.6	0
607	618568	419.7	0
607	618568	419.8	0
607	618568	419.9	0
607	618568	420	0
607	618568	420.1	0
607	618568	420.2	0
607	618568	420.3	0
607	618568	420.4	0
607	618568	420.5	0
607	618568	420.6	0
607	618568	420.7	0
607	618568	420.8	0
607	618568	420.9	0
607	618568	421	0
607	618568	421.1	0
607	618568	421.2	0
607	618568	421.3	0
607	618568	421.4	0
607	618568	421.5	0
607	618568	421.6	0
607	618568	421.7	0
607	618568	421.8	0
607	618568	421.9	0
607	618568	422	0
607	618568	422.1	0
607	618568	422.2	0
607	618568	422.3	0
607	618568	422.4	0
607	618568	422.5	0
607	618568	422.6	0
607	618568	422.7	0
607	618568	422.8	0
607	618568	422.9	0
607	618568	423	0
607	618568	423.1	0
607	618568	423.2	0
607	618568	423.3	0
607	618568	423.4	0
607	618568	423.5	0
607	618568	423.6	0
607	618568	423.7	0
607	618568	423.8	0
607	618568	423.9	0
607	618568	424	0
607	618568	424.1	0
607	618568	424.2	0
607	618568	424.3	0
607	618568	424.4	0
607	618568	424.5	0
607	618568	424.6	0
607	618568	424.7	0
607	618568	424.8	0
607	618568	424.9	0
607	618568	425	0
607	618568	425.1	0
607	618568	425.2	0
607	618568	425.3	0
607	618568	425.4	0
607	618568	425.5	0
607	618568	425.6	0
607	618568	425.7	0
607	618568	425.8	0
607	618568	425.9	0
607	618568	426	0
607	618568	426.1	0
607	618568	426.2	0
607	618568	426.3	0
607	618568	426.4	0
607	618568	426.5	0
607	618568	426.6	0
607	618568	426.7	0
607	618568	426.8	0
607	618568	426.9	0
607	618568	427	0
607	618568	427.1	0
607	618568	427.2	0
607	618568	427.3	0
607	618568	427.4	0
607	618568	427.5	0
607	618568	427.6	0
607	618568	427.7	0
607	618568	427.8	0
607	618568	427.9	0
607	618568	428	0
607	618568	428.1	0
607	618568	428.2	0
607	618568	428.3	0
607	618568	428.4	0
607	618568	428.5	0
607	618568	428.6	0
607	618568	428.7	0
607	618568	428.8	0
607	618568	428.9	0
607	618568	429	0
607	618568	429.1	0
607	618568	429.2	0
607	618568	429.3	0
607	618568	429.4	0
607	618568	429.5	0
607	618568	429.6	0
607	618568	429.7	0
607	618568	429.8	0
607	618568	429.9	0
607	618568	430	0
607	618568	430.1	0
607	618568	430.2	0
607	618568	430.3	0
607	618568	430.4	0
607	618568	430.5	0
607	618568	430.6	0
607	618568	430.7	0
607	618568	430.8	0
607	618568	430.9	0
607	618568	431	0
607	618568	431.1	0
607	618568	431.2	0
607	618568	431.3	0
607	618568	431.4	0
607	618568	431.5	0
607	618568	431.6	0
607	618568	431.7	0
607	618568	431.8	0
607	618568	431.9	0
607	618568	432	0
607	618568	432.1	0
607	618568	432.2	0
607	618568	432.3	0
607	618568	432.4	0
607	618568	432.5	0
607	618568	432.6	0
607	618568	432.7	0
607	618568	432.8	0
607	618568	432.9	0
607	618568	433	0
607	618568	433.1	0
607	618568	433.2	0
607	618568	433.3	0
607	618568	433.4	0
607	618568	433.5	0
607	618568	433.6	0
607	618568	433.7	0
607	618568	433.8	0
607	618568	433.9	0
607	618568	434	0
607	618568	434.1	0
607	618568	434.2	0
607	618568	434.3	0
607	618568	434.4	0
607	618568	434.5	0
607	618568	434.6	0
607	618568	434.7	0
607	618568	434.8	0
607	618568	434.9	0
607	618568	435	0
607	618568	435.1	0
607	618568	435.2	0
607	618568	435.3	0
607	618568	435.4	0
607	618568	435.5	0
607	618568	435.6	0
607	618568	435.7	0
607	618568	435.8	0
607	618568	435.9	0
607	618568	436	0
607	618568	436.1	0
607	618568	436.2	0
607	618568	436.3	0
607	618568	436.4	0
607	618568	436.5	0
607	618568	436.6	0
607	618568	436.7	0
607	618568	436.8	0
607	618568	436.9	0
607	618568	437	0
607	618568	437.1	0
607	618568	437.2	0
607	618568	437.3	0
607	618568	437.4	0
607	618568	437.5	0
607	618568	437.6	0
607	618568	437.7	0
607	618568	437.8	0
607	618568	437.9	0
607	618568	438	0
607	618568	438.1	0
607	618568	438.2	0
607	618568	438.3	0
607	618568	438.4	0
607	618568	438.5	0
607	618568	438.6	0
607	618568	438.7	0
607	618568	438.8	0
607	618568	438.9	0
607	618568	439	0
607	618568	439.1	0
607	618568	439.2	0
607	618568	439.3	0
607	618568	439.4	0
607	618568	439.5	0
607	618568	439.6	0
607	618568	439.7	0
607	618568	439.8	0
607	618568	439.9	0
607	618568	440	0
607	618568	440.1	0
607	618568	440.2	0
607	618568	440.3	0
607	618568	440.4	0
607	618568	440.5	0
607	618568	440.6	0
607	618568	440.7	0
607	618568	440.8	0
607	618568	440.9	0
607	618568	441	0
607	618568	441.1	0
607	618568	441.2	0
607	618568	441.3	0
607	618568	441.4	0
607	618568	441.5	0
607	618568	441.6	0
607	618568	441.7	0
607	618568	441.8	0
607	618568	441.9	0
607	618568	442	0
607	618568	442.1	0
607	618568	442.2	0
607	618568	442.3	0
607	618568	442.4	0
607	618568	442.5	0
607	618568	442.6	0
607	618568	442.7	0
607	618568	442.8	0
607	618568	442.9	0
607	618568	443	0
607	618568	443.1	0
607	618568	443.2	0
607	618568	443.3	0
607	618568	443.4	0
607	618568	443.5	0
607	618568	443.6	0
607	618568	443.7	0
607	618568	443.8	0
607	618568	443.9	0
607	618568	444	0
607	618568	444.1	0
607	618568	444.2	0
607	618568	444.3	0
607	618568	444.4	0
607	618568	444.5	0
607	618568	444.6	0
607	618568	444.7	0
607	618568	444.8	0
607	618568	444.9	0
607	618568	445	0
607	618568	445.1	0
607	618568	445.2	0
607	618568	445.3	0
607	618568	445.4	0
607	618568	445.5	0
607	618568	445.6	0
607	618568	445.7	0
607	618568	445.8	0
607	618568	445.9	0
607	618568	446	0
607	618568	446.1	0
607	618568	446.2	0
607	618568	446.3	0
607	618568	446.4	0
607	618568	446.5	0
607	618568	446.6	0
607	618568	446.7	0
607	618568	446.8	0
607	618568	446.9	0
607	618568	447	0
607	618568	447.1	0
607	618568	447.2	0
607	618568	447.3	0
607	618568	447.4	0
607	618568	447.5	0
607	618568	447.6	0
607	618568	447.7	0
607	618568	447.8	0
607	618568	447.9	0
607	618568	448	0
607	618568	448.1	0
607	618568	448.2	0
607	618568	448.3	0
607	618568	448.4	0
607	618568	448.5	0
607	618568	448.6	0
607	618568	448.7	0
607	618568	448.8	0
607	618568	448.9	0
607	618568	449	0
607	618568	449.1	0
607	618568	449.2	0
607	618568	449.3	0
607	618568	449.4	0
607	618568	449.5	0
607	618568	449.6	0
607	618568	449.7	0
607	618568	449.8	0
607	618568	449.9	0
607	618568	450	0
607	618568	450.1	0
607	618568	450.2	0
607	618568	450.3	0
607	618568	450.4	0
607	618568	450.5	0
607	618568	450.6	0
607	618568	450.7	0
607	618568	450.8	0
607	618568	450.9	0
607	618568	451	0
607	618568	451.1	0
607	618568	451.2	0
607	618568	451.3	0
607	618568	451.4	0
607	618568	451.5	0
607	618568	451.6	0
607	618568	451.7	0
607	618568	451.8	0
607	618568	451.9	0
607	618568	452	0
607	618568	452.1	0
607	618568	452.2	0
607	618568	452.3	0
607	618568	452.4	0
607	618568	452.5	0
607	618568	452.6	0
607	618568	452.7	0
607	618568	452.8	0
607	618568	452.9	0
607	618568	453	0
607	618568	453.1	0
607	618568	453.2	0
607	618568	453.3	0
607	618568	453.4	0
607	618568	453.5	0
607	618568	453.6	0
607	618568	453.7	0
607	618568	453.8	0
607	618568	453.9	0
607	618568	454	0
607	618568	454.1	0
607	618568	454.2	0
607	618568	454.3	0
607	618568	454.4	0
607	618568	454.5	0
607	618568	454.6	0
607	618568	454.7	0
607	618568	454.8	0
607	618568	454.9	0
607	618568	455	0
607	618568	455.1	0
607	618568	455.2	0
607	618568	455.3	0
607	618568	455.4	0
607	618568	455.5	0
607	618568	455.6	0
607	618568	455.7	0
607	618568	455.8	0
607	618568	455.9	0
607	618568	456	0
607	618568	456.1	0
607	618568	456.2	0
607	618568	456.3	0
607	618568	456.4	0
607	618568	456.5	0
607	618568	456.6	0
607	618568	456.7	0
607	618568	456.8	0
607	618568	456.9	0
607	618568	457	0
607	618568	457.1	0
607	618568	457.2	0
607	618568	457.3	0
607	618568	457.4	0
607	618568	457.5	0
607	618568	457.6	0
607	618568	457.7	0
607	618568	457.8	0
607	618568	457.9	0
607	618568	458	0
607	618568	458.1	0
607	618568	458.2	0
607	618568	458.3	0
607	618568	458.4	0
607	618568	458.5	0
607	618568	458.6	0
607	618568	458.7	0
607	618568	458.8	0
607	618568	458.9	0
607	618568	459	0
607	618568	459.1	0
607	618568	459.2	0
607	618568	459.3	0
607	618568	459.4	0
607	618568	459.5	0
607	618568	459.6	0
607	618568	459.7	0
607	618568	459.8	0
607	618568	459.9	0
607	618568	460	0
607	618568	460.1	0
607	618568	460.2	0
607	618568	460.3	0
607	618568	460.4	0
607	618568	460.5	0
607	618568	460.6	0
607	618568	460.7	0
607	618568	460.8	0
607	618568	460.9	0
607	618568	461	0
607	618568	461.1	0
607	618568	461.2	0
607	618568	461.3	0
607	618568	461.4	0
607	618568	461.5	0
607	618568	461.6	0
607	618568	461.7	0
607	618568	461.8	0
607	618568	461.9	0
607	618568	462	0
607	618568	462.1	0
607	618568	462.2	0
607	618568	462.3	0
607	618568	462.4	0
607	618568	462.5	0
607	618568	462.6	0
607	618568	462.7	0
607	618568	462.8	0
607	618568	462.9	0
607	618568	463	0
607	618568	463.1	0
607	618568	463.2	0
607	618568	463.3	0
607	618568	463.4	0
607	618568	463.5	0
607	618568	463.6	0
607	618568	463.7	0
607	618568	463.8	0
607	618568	463.9	0
607	618568	464	0
607	618568	464.1	0
607	618568	464.2	0
607	618568	464.3	0
607	618568	464.4	0
607	618568	464.5	0
607	618568	464.6	0
607	618568	464.7	0
607	618568	464.8	0
607	618568	464.9	0
607	618568	465	0
607	618568	465.1	0
607	618568	465.2	0
607	618568	465.3	0
607	618568	465.4	0
607	618568	465.5	0
607	618568	465.6	0
607	618568	465.7	0
607	618568	465.8	0
607	618568	465.9	0
607	618568	466	0
607	618568	466.1	0
607	618568	466.2	0
607	618568	466.3	0
607	618568	466.4	0
607	618568	466.5	0
607	618568	466.6	0
607	618568	466.7	0
607	618568	466.8	0
607	618568	466.9	0
607	618568	467	0
607	618568	467.1	0
607	618568	467.2	0
607	618568	467.3	0
607	618568	467.4	0
607	618568	467.5	0
607	618568	467.6	0
607	618568	467.7	0
607	618568	467.8	0
607	618568	467.9	0
607	618568	468	0
607	618568	468.1	0
607	618568	468.2	0
607	618568	468.3	0
607	618568	468.4	0
607	618568	468.5	0
607	618568	468.6	0
607	618568	468.7	0
607	618568	468.8	0
607	618568	468.9	0
607	618568	469	0
607	618568	469.1	0
607	618568	469.2	0
607	618568	469.3	0
607	618568	469.4	0
607	618568	469.5	0
607	618568	469.6	0
607	618568	469.7	0
607	618568	469.8	0
607	618568	469.9	0
607	618568	470	0
607	618568	470.1	0
607	618568	470.2	0
607	618568	470.3	0
607	618568	470.4	0
607	618568	470.5	0
607	618568	470.6	0
607	618568	470.7	0
607	618568	470.8	0
607	618568	470.9	0
607	618568	471	0
607	618568	471.1	0
607	618568	471.2	0
607	618568	471.3	0
607	618568	471.4	0
607	618568	471.5	0
607	618568	471.6	0
607	618568	471.7	0
607	618568	471.8	0
607	618568	471.9	0
607	618568	472	0
607	618568	472.1	0
607	618568	472.2	0
607	618568	472.3	0
607	618568	472.4	0
607	618568	472.5	0
607	618568	472.6	0
607	618568	472.7	0
607	618568	472.8	0
607	618568	472.9	0
607	618568	473	0
607	618568	473.1	0
607	618568	473.2	0
607	618568	473.3	0
607	618568	473.4	0
607	618568	473.5	0
607	618568	473.6	0
607	618568	473.7	0
607	618568	473.8	0
607	618568	473.9	0
607	618568	474	0
607	618568	474.1	0
607	618568	474.2	0
607	618568	474.3	0
607	618568	474.4	0
607	618568	474.5	0
607	618568	474.6	0
607	618568	474.7	0
607	618568	474.8	0
607	618568	474.9	0
607	618568	475	0
607	618568	475.1	0
607	618568	475.2	0
607	618568	475.3	0
607	618568	475.4	0
607	618568	475.5	0
607	618568	475.6	0
607	618568	475.7	0
607	618568	475.8	0
607	618568	475.9	0
607	618568	476	0
607	618568	476.1	0
607	618568	476.2	0
607	618568	476.3	0
607	618568	476.4	0
607	618568	476.5	0
607	618568	476.6	0
607	618568	476.7	0
607	618568	476.8	0
607	618568	476.9	0
607	618568	477	0
607	618568	477.1	0
607	618568	477.2	0
607	618568	477.3	0
607	618568	477.4	0
607	618568	477.5	0
607	618568	477.6	0
607	618568	477.7	0
607	618568	477.8	0
607	618568	477.9	0
607	618568	478	0
607	618568	478.1	0
607	618568	478.2	0
607	618568	478.3	0
607	618568	478.4	0
607	618568	478.5	0
607	618568	478.6	0
607	618568	478.7	0
607	618568	478.8	0
607	618568	478.9	0
607	618568	479	0
607	618568	479.1	0
607	618568	479.2	0
607	618568	479.3	0
607	618568	479.4	0
607	618568	479.5	0
607	618568	479.6	0
607	618568	479.7	0
607	618568	479.8	0
607	618568	479.9	0
607	618568	480	0
607	618568	480.1	0
607	618568	480.2	0
607	618568	480.3	0
607	618568	480.4	0
607	618568	480.5	0
607	618568	480.6	0
607	618568	480.7	0
607	618568	480.8	0
607	618568	480.9	0
607	618568	481	0
607	618568	481.1	0
607	618568	481.2	0
607	618568	481.3	0
607	618568	481.4	0
607	618568	481.5	0
607	618568	481.6	0
607	618568	481.7	0
607	618568	481.8	0
607	618568	481.9	0
607	618568	482	0
607	618568	482.1	0
607	618568	482.2	0
607	618568	482.3	0
607	618568	482.4	0
607	618568	482.5	0
607	618568	482.6	0
607	618568	482.7	0
607	618568	482.8	0
607	618568	482.9	0
607	618568	483	0
607	618568	483.1	0
607	618568	483.2	0
607	618568	483.3	0
607	618568	483.4	0
607	618568	483.5	0
607	618568	483.6	0
607	618568	483.7	0
607	618568	483.8	0
607	618568	483.9	0
607	618568	484	0
607	618568	484.1	0
607	618568	484.2	0
607	618568	484.3	0
607	618568	484.4	0
607	618568	484.5	0
607	618568	484.6	0
607	618568	484.7	0
607	618568	484.8	0
607	618568	484.9	0
607	618568	485	0
607	618568	485.1	0
607	618568	485.2	0
607	618568	485.3	0
607	618568	485.4	0
607	618568	485.5	0
607	618568	485.6	0
607	618568	485.7	0
607	618568	485.8	0
607	618568	485.9	0
607	618568	486	0
607	618568	486.1	0
607	618568	486.2	0
607	618568	486.3	0
607	618568	486.4	0
607	618568	486.5	0
607	618568	486.6	0
607	618568	486.7	0
607	618568	486.8	0
607	618568	486.9	0
607	618568	487	0
607	618568	487.1	0
607	618568	487.2	0
607	618568	487.3	0
607	618568	487.4	0
607	618568	487.5	0
607	618568	487.6	0
607	618568	487.7	0
607	618568	487.8	0
607	618568	487.9	0
607	618568	488	0
607	618568	488.1	0
607	618568	488.2	0
607	618568	488.3	0
607	618568	488.4	0
607	618568	488.5	0
607	618568	488.6	0
607	618568	488.7	0
607	618568	488.8	0
607	618568	488.9	0
607	618568	489	0
607	618568	489.1	0
607	618568	489.2	0
607	618568	489.3	0
607	618568	489.4	0
607	618568	489.5	0
607	618568	489.6	0
607	618568	489.7	0
607	618568	489.8	0
607	618568	489.9	0
607	618568	490	0
607	618568	490.1	0
607	618568	490.2	0
607	618568	490.3	0
607	618568	490.4	0
607	618568	490.5	0
607	618568	490.6	0
607	618568	490.7	0
607	618568	490.8	0
607	618568	490.9	0
607	618568	491	0
607	618568	491.1	0
607	618568	491.2	0
607	618568	491.3	0
607	618568	491.4	0
607	618568	491.5	0
607	618568	491.6	0
607	618568	491.7	0
607	618568	491.8	0
607	618568	491.9	0
607	618568	492	0
607	618568	492.1	0
607	618568	492.2	0
607	618568	492.3	0
607	618568	492.4	0
607	618568	492.5	0
607	618568	492.6	0
607	618568	492.7	0
607	618568	492.8	0
607	618568	492.9	0
607	618568	493	0
607	618568	493.1	0
607	618568	493.2	0
607	618568	493.3	0
607	618568	493.4	0
607	618568	493.5	0
607	618568	493.6	0
607	618568	493.7	0
607	618568	493.8	0
607	618568	493.9	0
607	618568	494	0
607	618568	494.1	0
607	618568	494.2	0
607	618568	494.3	0
607	618568	494.4	0
607	618568	494.5	0
607	618568	494.6	0
607	618568	494.7	0
607	618568	494.8	0
607	618568	494.9	0
607	618568	495	0
607	618568	495.1	0
607	618568	495.2	0
607	618568	495.3	0
607	618568	495.4	0
607	618568	495.5	0
607	618568	495.6	0
607	618568	495.7	0
607	618568	495.8	0
607	618568	495.9	0
607	618568	496	0
607	618568	496.1	0
607	618568	496.2	0
607	618568	496.3	0
607	618568	496.4	0
607	618568	496.5	0
607	618568	496.6	0
607	618568	496.7	0
607	618568	496.8	0
607	618568	496.9	0
607	618568	497	0
607	618568	497.1	0
607	618568	497.2	0
607	618568	497.3	0
607	618568	497.4	0
607	618568	497.5	0
607	618568	497.6	0
607	618568	497.7	0
607	618568	497.8	0
607	618568	497.9	0
607	618568	498	0
607	618568	498.1	0
607	618568	498.2	0
607	618568	498.3	0
607	618568	498.4	0
607	618568	498.5	0
607	618568	498.6	0
607	618568	498.7	0
607	618568	498.8	0
607	618568	498.9	0
607	618568	499	0
607	618568	499.1	0
607	618568	499.2	0
607	618568	499.3	0
607	618568	499.4	0
607	618568	499.5	0
607	618568	499.6	0
607	618568	499.7	0
607	618568	499.8	0
607	618568	499.9	0
607	618568	500	0

