version 2
run FanetCoordinateNormale-0-20220530-18:07:34-72148
attr configname FanetCoordinateNormale
attr datetime 20220530-18:07:34
attr experiment FanetCoordinateNormale
attr inifile omnetpp.ini
attr iterationvars ""
attr iterationvarsf ""
attr measurement ""
attr network FanetCoordinateNormale
attr processid 72148
attr repetition 0
attr replication #0
attr resultdir results
attr runnumber 0
attr seedset 0
param *.attacker[*].mobility.typename "\"MassMobility\""
param *.attacker[*].mobility.changeInterval 1s
param *.attacker[*].mobility.initialMovementHeading "uniform(0deg, 360deg)"
param *.attacker[*].mobility.initialMovementElevation "uniform(-90deg, 90deg)"
param *.attacker[*].mobility.angleDelta uniform(-10deg,10deg)
param *.attacker[*].mobility.rotationAxisAngle uniform(-10deg,10deg)
param *.attacker[*].mobility.speed uniform(10mps,20mps)
param *.attacker[*].mobility.faceForward false
param *.attacker*.wlan[0].typename "\"AckingWirelessInterface\""
param *.attacker*.wlan[0].radio.transmitter.communicationRange 400m
param *.attacker*.wlan[0].radio.displayCommunicationRange true
param *.host[0].numApps 1
param *.host[0].app[0].typename "\"UdpBasicApp\""
param *.host[0].app[0].startTime 15s
param *.host[0].app[0].destAddresses "\"host[15]\""
param *.host[0].app[0].destPort 5000
param *.host[0].app[0].messageLength 1000B
param *.host[0].app[0].sendInterval exponential(1s)
param *.host[0].app[0].packetName "\"UDPdata\""
param *.host[15].numApps 1
param *.host[15].app[0].typename "\"UdpSink\""
param *.host[15].app[0].localPort 5000
param **.wlan[*].bitrate 24Mbps
param *.configurator.addStaticRoutes false
param **.netmaskRoutes "\"\""
param **.arp.typename "\"GlobalArp\""
param *.host*.wlan[0].typename "\"AckingWirelessInterface\""
param *.host*.wlan[0].radio.transmitter.communicationRange 400m
param *.host*.wlan[0].radio.displayCommunicationRange true
param *.visualizer.osgVisualizer.typename "\"IntegratedOsgVisualizer\""
param *.visualizer.osgVisualizer.sceneVisualizer.clearColor "\"skyblue\""
param *.visualizer.osgVisualizer.sceneVisualizer.sceneImage "\"showcases/desert\""
param *.visualizer.osgVisualizer.sceneVisualizer.sceneImageSize 5000m
param *.visualizer.osgVisualizer.sceneVisualizer.axisLength 1000m
param *.visualizer.osgVisualizer.sceneVisualizer.sceneMinX -2000m
param *.visualizer.osgVisualizer.sceneVisualizer.sceneMinY -2000m
param *.visualizer.osgVisualizer.sceneVisualizer.sceneMinZ 0m
param *.visualizer.osgVisualizer.sceneVisualizer.sceneMaxX 3000m
param *.visualizer.osgVisualizer.sceneVisualizer.sceneMaxY 3000m
param *.visualizer.osgVisualizer.sceneVisualizer.sceneMaxZ 1000m
param *.visualizer.osgVisualizer.networkNodeVisualizer.displayModuleName false
param *.visualizer.*.mobilityVisualizer.displayMobility true
param *.visualizer.*.mobilityVisualizer.displayPositions true
param *.visualizer.*.mobilityVisualizer.displayOrientations true
param *.visualizer.*.mobilityVisualizer.displayVelocities true
param *.visualizer.*.mobilityVisualizer.displayMovementTrails true
param *.visualizer.*.mobilityVisualizer.animationSpeed 1
param *.visualizer.*.packetDropVisualizer.displayPacketDrops false
param *.visualizer.*.packetDropVisualizer.labelFormat "\"%n/reason: %r\""
param *.visualizer.*.packetDropVisualizer.fadeOutTime 10s
param **.constraintAreaMinX 0m
param **.constraintAreaMinY 0m
param **.constraintAreaMinZ 40m
param **.constraintAreaMaxX 2500m
param **.constraintAreaMaxY 2000m
param **.constraintAreaMaxZ 200m
param *.visualizer.*.mediumVisualizer.signalPropagationAnimationSpeed 500/3e8
param *.visualizer.*.mediumVisualizer.signalTransmissionAnimationSpeed 50000/3e8
param *.visualizer.*.mediumVisualizer.displaySignals false
param *.visualizer.*.mediumVisualizer.displayTransmissions false
param *.visualizer.*.mediumVisualizer.displayReceptions false
param *.visualizer.*.mediumVisualizer.transmissionPlacementPriority 10
param *.visualizer.*.mediumVisualizer.receptionPlacementPriority 10
param *.visualizer.*.mediumVisualizer.displaySignals false
param *.visualizer.*.mediumVisualizer.signalFadingDistance 50m
param *.visualizer.*.mediumVisualizer.signalRingSize 50m
param *.visualizer.osgVisualizer.mediumVisualizer.signalShape "\"both\""
param *.host[*].osgModel "\"3d/drone.ive.100.scale.0,0,90.rot\""
param *.host[*].mobility.typename "\"MassMobility\""
param *.host[*].mobility.changeInterval 1s
param *.host[*].mobility.initialMovementHeading "uniform(0deg, 360deg)"
param *.host[*].mobility.initialMovementElevation "uniform(-90deg, 90deg)"
param *.host[*].mobility.angleDelta uniform(-10deg,10deg)
param *.host[*].mobility.rotationAxisAngle uniform(-10deg,10deg)
param *.host[*].mobility.speed uniform(10mps,20mps)
param *.host[*].mobility.faceForward false

vector 0 FanetCoordinateNormale.host[0].wlan[0].radio radioMode:vector ETV
attr interpolationmode sample-hold
attr source radioModeChanged
attr title "Radio mode, vector"
vector 1 FanetCoordinateNormale.host[1].wlan[0].radio radioMode:vector ETV
attr interpolationmode sample-hold
attr source radioModeChanged
attr title "Radio mode, vector"
vector 2 FanetCoordinateNormale.host[2].wlan[0].radio radioMode:vector ETV
attr interpolationmode sample-hold
attr source radioModeChanged
attr title "Radio mode, vector"
vector 3 FanetCoordinateNormale.host[3].wlan[0].radio radioMode:vector ETV
attr interpolationmode sample-hold
attr source radioModeChanged
attr title "Radio mode, vector"
vector 4 FanetCoordinateNormale.host[4].wlan[0].radio radioMode:vector ETV
attr interpolationmode sample-hold
attr source radioModeChanged
attr title "Radio mode, vector"
vector 5 FanetCoordinateNormale.host[5].wlan[0].radio radioMode:vector ETV
attr interpolationmode sample-hold
attr source radioModeChanged
attr title "Radio mode, vector"
vector 6 FanetCoordinateNormale.host[6].wlan[0].radio radioMode:vector ETV
attr interpolationmode sample-hold
attr source radioModeChanged
attr title "Radio mode, vector"
vector 7 FanetCoordinateNormale.host[7].wlan[0].radio radioMode:vector ETV
attr interpolationmode sample-hold
attr source radioModeChanged
attr title "Radio mode, vector"
vector 8 FanetCoordinateNormale.host[8].wlan[0].radio radioMode:vector ETV
attr interpolationmode sample-hold
attr source radioModeChanged
attr title "Radio mode, vector"
vector 9 FanetCoordinateNormale.host[9].wlan[0].radio radioMode:vector ETV
attr interpolationmode sample-hold
attr source radioModeChanged
attr title "Radio mode, vector"
vector 10 FanetCoordinateNormale.host[10].wlan[0].radio radioMode:vector ETV
attr interpolationmode sample-hold
attr source radioModeChanged
attr title "Radio mode, vector"
vector 11 FanetCoordinateNormale.host[11].wlan[0].radio radioMode:vector ETV
attr interpolationmode sample-hold
attr source radioModeChanged
attr title "Radio mode, vector"
vector 12 FanetCoordinateNormale.host[12].wlan[0].radio radioMode:vector ETV
attr interpolationmode sample-hold
attr source radioModeChanged
attr title "Radio mode, vector"
vector 13 FanetCoordinateNormale.host[13].wlan[0].radio radioMode:vector ETV
attr interpolationmode sample-hold
attr source radioModeChanged
attr title "Radio mode, vector"
vector 14 FanetCoordinateNormale.host[14].wlan[0].radio radioMode:vector ETV
attr interpolationmode sample-hold
attr source radioModeChanged
attr title "Radio mode, vector"
vector 15 FanetCoordinateNormale.host[15].wlan[0].radio radioMode:vector ETV
attr interpolationmode sample-hold
attr source radioModeChanged
attr title "Radio mode, vector"
vector 16 FanetCoordinateNormale.host[16].wlan[0].radio radioMode:vector ETV
attr interpolationmode sample-hold
attr source radioModeChanged
attr title "Radio mode, vector"
vector 17 FanetCoordinateNormale.host[17].wlan[0].radio radioMode:vector ETV
attr interpolationmode sample-hold
attr source radioModeChanged
attr title "Radio mode, vector"
vector 18 FanetCoordinateNormale.host[18].wlan[0].radio radioMode:vector ETV
attr interpolationmode sample-hold
attr source radioModeChanged
attr title "Radio mode, vector"
vector 19 FanetCoordinateNormale.host[19].wlan[0].radio radioMode:vector ETV
attr interpolationmode sample-hold
attr source radioModeChanged
attr title "Radio mode, vector"
vector 20 FanetCoordinateNormale.host[20].wlan[0].radio radioMode:vector ETV
attr interpolationmode sample-hold
attr source radioModeChanged
attr title "Radio mode, vector"
vector 21 FanetCoordinateNormale.host[21].wlan[0].radio radioMode:vector ETV
attr interpolationmode sample-hold
attr source radioModeChanged
attr title "Radio mode, vector"
vector 22 FanetCoordinateNormale.host[22].wlan[0].radio radioMode:vector ETV
attr interpolationmode sample-hold
attr source radioModeChanged
attr title "Radio mode, vector"
vector 23 FanetCoordinateNormale.host[23].wlan[0].radio radioMode:vector ETV
attr interpolationmode sample-hold
attr source radioModeChanged
attr title "Radio mode, vector"
vector 24 FanetCoordinateNormale.host[24].wlan[0].radio radioMode:vector ETV
attr interpolationmode sample-hold
attr source radioModeChanged
attr title "Radio mode, vector"
vector 25 FanetCoordinateNormale.host[25].wlan[0].radio radioMode:vector ETV
attr interpolationmode sample-hold
attr source radioModeChanged
attr title "Radio mode, vector"
vector 26 FanetCoordinateNormale.host[26].wlan[0].radio radioMode:vector ETV
attr interpolationmode sample-hold
attr source radioModeChanged
attr title "Radio mode, vector"
vector 27 FanetCoordinateNormale.host[27].wlan[0].radio radioMode:vector ETV
attr interpolationmode sample-hold
attr source radioModeChanged
attr title "Radio mode, vector"
vector 28 FanetCoordinateNormale.host[28].wlan[0].radio radioMode:vector ETV
attr interpolationmode sample-hold
attr source radioModeChanged
attr title "Radio mode, vector"
vector 29 FanetCoordinateNormale.host[29].wlan[0].radio radioMode:vector ETV
attr interpolationmode sample-hold
attr source radioModeChanged
attr title "Radio mode, vector"
vector 30 FanetCoordinateNormale.attacker[0].wlan[0].radio radioMode:vector ETV
attr interpolationmode sample-hold
attr source radioModeChanged
attr title "Radio mode, vector"
vector 31 FanetCoordinateNormale.attacker[1].wlan[0].radio radioMode:vector ETV
attr interpolationmode sample-hold
attr source radioModeChanged
attr title "Radio mode, vector"
vector 32 FanetCoordinateNormale.attacker[2].wlan[0].radio radioMode:vector ETV
attr interpolationmode sample-hold
attr source radioModeChanged
attr title "Radio mode, vector"
vector 33 FanetCoordinateNormale.attacker[3].wlan[0].radio radioMode:vector ETV
attr interpolationmode sample-hold
attr source radioModeChanged
attr title "Radio mode, vector"
vector 34 FanetCoordinateNormale.attacker[4].wlan[0].radio radioMode:vector ETV
attr interpolationmode sample-hold
attr source radioModeChanged
attr title "Radio mode, vector"
vector 35 FanetCoordinateNormale.attacker[5].wlan[0].radio radioMode:vector ETV
attr interpolationmode sample-hold
attr source radioModeChanged
attr title "Radio mode, vector"
vector 36 FanetCoordinateNormale.attacker[6].wlan[0].radio radioMode:vector ETV
attr interpolationmode sample-hold
attr source radioModeChanged
attr title "Radio mode, vector"
vector 37 FanetCoordinateNormale.attacker[7].wlan[0].radio radioMode:vector ETV
attr interpolationmode sample-hold
attr source radioModeChanged
attr title "Radio mode, vector"
vector 38 FanetCoordinateNormale.attacker[8].wlan[0].radio radioMode:vector ETV
attr interpolationmode sample-hold
attr source radioModeChanged
attr title "Radio mode, vector"
vector 39 FanetCoordinateNormale.attacker[9].wlan[0].radio radioMode:vector ETV
attr interpolationmode sample-hold
attr source radioModeChanged
attr title "Radio mode, vector"
vector 40 FanetCoordinateNormale.attacker[10].wlan[0].radio radioMode:vector ETV
attr interpolationmode sample-hold
attr source radioModeChanged
attr title "Radio mode, vector"
vector 41 FanetCoordinateNormale.attacker[11].wlan[0].radio radioMode:vector ETV
attr interpolationmode sample-hold
attr source radioModeChanged
attr title "Radio mode, vector"
vector 42 FanetCoordinateNormale.attacker[12].wlan[0].radio radioMode:vector ETV
attr interpolationmode sample-hold
attr source radioModeChanged
attr title "Radio mode, vector"
vector 43 FanetCoordinateNormale.attacker[13].wlan[0].radio radioMode:vector ETV
attr interpolationmode sample-hold
attr source radioModeChanged
attr title "Radio mode, vector"
vector 44 FanetCoordinateNormale.attacker[14].wlan[0].radio radioMode:vector ETV
attr interpolationmode sample-hold
attr source radioModeChanged
attr title "Radio mode, vector"
vector 45 FanetCoordinateNormale.attacker[15].wlan[0].radio radioMode:vector ETV
attr interpolationmode sample-hold
attr source radioModeChanged
attr title "Radio mode, vector"
vector 46 FanetCoordinateNormale.attacker[16].wlan[0].radio radioMode:vector ETV
attr interpolationmode sample-hold
attr source radioModeChanged
attr title "Radio mode, vector"
vector 47 FanetCoordinateNormale.attacker[17].wlan[0].radio radioMode:vector ETV
attr interpolationmode sample-hold
attr source radioModeChanged
attr title "Radio mode, vector"
vector 48 FanetCoordinateNormale.attacker[18].wlan[0].radio radioMode:vector ETV
attr interpolationmode sample-hold
attr source radioModeChanged
attr title "Radio mode, vector"
vector 49 FanetCoordinateNormale.attacker[19].wlan[0].radio radioMode:vector ETV
attr interpolationmode sample-hold
attr source radioModeChanged
attr title "Radio mode, vector"
vector 50 FanetCoordinateNormale.host[0].wlan[0].radio receptionState:vector ETV
attr interpolationmode sample-hold
attr source receptionStateChanged
attr title "Radio reception state, vector"
vector 51 FanetCoordinateNormale.host[0].wlan[0].radio transmissionState:vector ETV
attr interpolationmode sample-hold
attr source transmissionStateChanged
attr title "Radio transmission state, vector"
vector 52 FanetCoordinateNormale.host[1].wlan[0].radio receptionState:vector ETV
attr interpolationmode sample-hold
attr source receptionStateChanged
attr title "Radio reception state, vector"
vector 53 FanetCoordinateNormale.host[1].wlan[0].radio transmissionState:vector ETV
attr interpolationmode sample-hold
attr source transmissionStateChanged
attr title "Radio transmission state, vector"
vector 54 FanetCoordinateNormale.host[2].wlan[0].radio receptionState:vector ETV
attr interpolationmode sample-hold
attr source receptionStateChanged
attr title "Radio reception state, vector"
vector 55 FanetCoordinateNormale.host[2].wlan[0].radio transmissionState:vector ETV
attr interpolationmode sample-hold
attr source transmissionStateChanged
attr title "Radio transmission state, vector"
vector 56 FanetCoordinateNormale.host[3].wlan[0].radio receptionState:vector ETV
attr interpolationmode sample-hold
attr source receptionStateChanged
attr title "Radio reception state, vector"
vector 57 FanetCoordinateNormale.host[3].wlan[0].radio transmissionState:vector ETV
attr interpolationmode sample-hold
attr source transmissionStateChanged
attr title "Radio transmission state, vector"
vector 58 FanetCoordinateNormale.host[4].wlan[0].radio receptionState:vector ETV
attr interpolationmode sample-hold
attr source receptionStateChanged
attr title "Radio reception state, vector"
vector 59 FanetCoordinateNormale.host[4].wlan[0].radio transmissionState:vector ETV
attr interpolationmode sample-hold
attr source transmissionStateChanged
attr title "Radio transmission state, vector"
vector 60 FanetCoordinateNormale.host[5].wlan[0].radio receptionState:vector ETV
attr interpolationmode sample-hold
attr source receptionStateChanged
attr title "Radio reception state, vector"
vector 61 FanetCoordinateNormale.host[5].wlan[0].radio transmissionState:vector ETV
attr interpolationmode sample-hold
attr source transmissionStateChanged
attr title "Radio transmission state, vector"
vector 62 FanetCoordinateNormale.host[6].wlan[0].radio receptionState:vector ETV
attr interpolationmode sample-hold
attr source receptionStateChanged
attr title "Radio reception state, vector"
vector 63 FanetCoordinateNormale.host[6].wlan[0].radio transmissionState:vector ETV
attr interpolationmode sample-hold
attr source transmissionStateChanged
attr title "Radio transmission state, vector"
vector 64 FanetCoordinateNormale.host[7].wlan[0].radio receptionState:vector ETV
attr interpolationmode sample-hold
attr source receptionStateChanged
attr title "Radio reception state, vector"
vector 65 FanetCoordinateNormale.host[7].wlan[0].radio transmissionState:vector ETV
attr interpolationmode sample-hold
attr source transmissionStateChanged
attr title "Radio transmission state, vector"
vector 66 FanetCoordinateNormale.host[8].wlan[0].radio receptionState:vector ETV
attr interpolationmode sample-hold
attr source receptionStateChanged
attr title "Radio reception state, vector"
vector 67 FanetCoordinateNormale.host[8].wlan[0].radio transmissionState:vector ETV
attr interpolationmode sample-hold
attr source transmissionStateChanged
attr title "Radio transmission state, vector"
vector 68 FanetCoordinateNormale.host[9].wlan[0].radio receptionState:vector ETV
attr interpolationmode sample-hold
attr source receptionStateChanged
attr title "Radio reception state, vector"
vector 69 FanetCoordinateNormale.host[9].wlan[0].radio transmissionState:vector ETV
attr interpolationmode sample-hold
attr source transmissionStateChanged
attr title "Radio transmission state, vector"
vector 70 FanetCoordinateNormale.host[10].wlan[0].radio receptionState:vector ETV
attr interpolationmode sample-hold
attr source receptionStateChanged
attr title "Radio reception state, vector"
vector 71 FanetCoordinateNormale.host[10].wlan[0].radio transmissionState:vector ETV
attr interpolationmode sample-hold
attr source transmissionStateChanged
attr title "Radio transmission state, vector"
vector 72 FanetCoordinateNormale.host[11].wlan[0].radio receptionState:vector ETV
attr interpolationmode sample-hold
attr source receptionStateChanged
attr title "Radio reception state, vector"
vector 73 FanetCoordinateNormale.host[11].wlan[0].radio transmissionState:vector ETV
attr interpolationmode sample-hold
attr source transmissionStateChanged
attr title "Radio transmission state, vector"
vector 74 FanetCoordinateNormale.host[12].wlan[0].radio receptionState:vector ETV
attr interpolationmode sample-hold
attr source receptionStateChanged
attr title "Radio reception state, vector"
vector 75 FanetCoordinateNormale.host[12].wlan[0].radio transmissionState:vector ETV
attr interpolationmode sample-hold
attr source transmissionStateChanged
attr title "Radio transmission state, vector"
vector 76 FanetCoordinateNormale.host[13].wlan[0].radio receptionState:vector ETV
attr interpolationmode sample-hold
attr source receptionStateChanged
attr title "Radio reception state, vector"
vector 77 FanetCoordinateNormale.host[13].wlan[0].radio transmissionState:vector ETV
attr interpolationmode sample-hold
attr source transmissionStateChanged
attr title "Radio transmission state, vector"
vector 78 FanetCoordinateNormale.host[14].wlan[0].radio receptionState:vector ETV
attr interpolationmode sample-hold
attr source receptionStateChanged
attr title "Radio reception state, vector"
vector 79 FanetCoordinateNormale.host[14].wlan[0].radio transmissionState:vector ETV
attr interpolationmode sample-hold
attr source transmissionStateChanged
attr title "Radio transmission state, vector"
vector 80 FanetCoordinateNormale.host[15].wlan[0].radio receptionState:vector ETV
attr interpolationmode sample-hold
attr source receptionStateChanged
attr title "Radio reception state, vector"
vector 81 FanetCoordinateNormale.host[15].wlan[0].radio transmissionState:vector ETV
attr interpolationmode sample-hold
attr source transmissionStateChanged
attr title "Radio transmission state, vector"
vector 82 FanetCoordinateNormale.host[16].wlan[0].radio receptionState:vector ETV
attr interpolationmode sample-hold
attr source receptionStateChanged
attr title "Radio reception state, vector"
vector 83 FanetCoordinateNormale.host[16].wlan[0].radio transmissionState:vector ETV
attr interpolationmode sample-hold
attr source transmissionStateChanged
attr title "Radio transmission state, vector"
vector 84 FanetCoordinateNormale.host[17].wlan[0].radio receptionState:vector ETV
attr interpolationmode sample-hold
attr source receptionStateChanged
attr title "Radio reception state, vector"
vector 85 FanetCoordinateNormale.host[17].wlan[0].radio transmissionState:vector ETV
attr interpolationmode sample-hold
attr source transmissionStateChanged
attr title "Radio transmission state, vector"
vector 86 FanetCoordinateNormale.host[18].wlan[0].radio receptionState:vector ETV
attr interpolationmode sample-hold
attr source receptionStateChanged
attr title "Radio reception state, vector"
vector 87 FanetCoordinateNormale.host[18].wlan[0].radio transmissionState:vector ETV
attr interpolationmode sample-hold
attr source transmissionStateChanged
attr title "Radio transmission state, vector"
vector 88 FanetCoordinateNormale.host[19].wlan[0].radio receptionState:vector ETV
attr interpolationmode sample-hold
attr source receptionStateChanged
attr title "Radio reception state, vector"
vector 89 FanetCoordinateNormale.host[19].wlan[0].radio transmissionState:vector ETV
attr interpolationmode sample-hold
attr source transmissionStateChanged
attr title "Radio transmission state, vector"
vector 90 FanetCoordinateNormale.host[20].wlan[0].radio receptionState:vector ETV
attr interpolationmode sample-hold
attr source receptionStateChanged
attr title "Radio reception state, vector"
vector 91 FanetCoordinateNormale.host[20].wlan[0].radio transmissionState:vector ETV
attr interpolationmode sample-hold
attr source transmissionStateChanged
attr title "Radio transmission state, vector"
vector 92 FanetCoordinateNormale.host[21].wlan[0].radio receptionState:vector ETV
attr interpolationmode sample-hold
attr source receptionStateChanged
attr title "Radio reception state, vector"
vector 93 FanetCoordinateNormale.host[21].wlan[0].radio transmissionState:vector ETV
attr interpolationmode sample-hold
attr source transmissionStateChanged
attr title "Radio transmission state, vector"
vector 94 FanetCoordinateNormale.host[22].wlan[0].radio receptionState:vector ETV
attr interpolationmode sample-hold
attr source receptionStateChanged
attr title "Radio reception state, vector"
vector 95 FanetCoordinateNormale.host[22].wlan[0].radio transmissionState:vector ETV
attr interpolationmode sample-hold
attr source transmissionStateChanged
attr title "Radio transmission state, vector"
vector 96 FanetCoordinateNormale.host[23].wlan[0].radio receptionState:vector ETV
attr interpolationmode sample-hold
attr source receptionStateChanged
attr title "Radio reception state, vector"
vector 97 FanetCoordinateNormale.host[23].wlan[0].radio transmissionState:vector ETV
attr interpolationmode sample-hold
attr source transmissionStateChanged
attr title "Radio transmission state, vector"
vector 98 FanetCoordinateNormale.host[24].wlan[0].radio receptionState:vector ETV
attr interpolationmode sample-hold
attr source receptionStateChanged
attr title "Radio reception state, vector"
vector 99 FanetCoordinateNormale.host[24].wlan[0].radio transmissionState:vector ETV
attr interpolationmode sample-hold
attr source transmissionStateChanged
attr title "Radio transmission state, vector"
vector 100 FanetCoordinateNormale.host[25].wlan[0].radio receptionState:vector ETV
attr interpolationmode sample-hold
attr source receptionStateChanged
attr title "Radio reception state, vector"
vector 101 FanetCoordinateNormale.host[25].wlan[0].radio transmissionState:vector ETV
attr interpolationmode sample-hold
attr source transmissionStateChanged
attr title "Radio transmission state, vector"
vector 102 FanetCoordinateNormale.host[26].wlan[0].radio receptionState:vector ETV
attr interpolationmode sample-hold
attr source receptionStateChanged
attr title "Radio reception state, vector"
vector 103 FanetCoordinateNormale.host[26].wlan[0].radio transmissionState:vector ETV
attr interpolationmode sample-hold
attr source transmissionStateChanged
attr title "Radio transmission state, vector"
vector 104 FanetCoordinateNormale.host[27].wlan[0].radio receptionState:vector ETV
attr interpolationmode sample-hold
attr source receptionStateChanged
attr title "Radio reception state, vector"
vector 105 FanetCoordinateNormale.host[27].wlan[0].radio transmissionState:vector ETV
attr interpolationmode sample-hold
attr source transmissionStateChanged
attr title "Radio transmission state, vector"
vector 106 FanetCoordinateNormale.host[28].wlan[0].radio receptionState:vector ETV
attr interpolationmode sample-hold
attr source receptionStateChanged
attr title "Radio reception state, vector"
vector 107 FanetCoordinateNormale.host[28].wlan[0].radio transmissionState:vector ETV
attr interpolationmode sample-hold
attr source transmissionStateChanged
attr title "Radio transmission state, vector"
vector 108 FanetCoordinateNormale.host[29].wlan[0].radio receptionState:vector ETV
attr interpolationmode sample-hold
attr source receptionStateChanged
attr title "Radio reception state, vector"
vector 109 FanetCoordinateNormale.host[29].wlan[0].radio transmissionState:vector ETV
attr interpolationmode sample-hold
attr source transmissionStateChanged
attr title "Radio transmission state, vector"
vector 110 FanetCoordinateNormale.attacker[0].wlan[0].radio receptionState:vector ETV
attr interpolationmode sample-hold
attr source receptionStateChanged
attr title "Radio reception state, vector"
vector 111 FanetCoordinateNormale.attacker[0].wlan[0].radio transmissionState:vector ETV
attr interpolationmode sample-hold
attr source transmissionStateChanged
attr title "Radio transmission state, vector"
vector 112 FanetCoordinateNormale.attacker[1].wlan[0].radio receptionState:vector ETV
attr interpolationmode sample-hold
attr source receptionStateChanged
attr title "Radio reception state, vector"
vector 113 FanetCoordinateNormale.attacker[1].wlan[0].radio transmissionState:vector ETV
attr interpolationmode sample-hold
attr source transmissionStateChanged
attr title "Radio transmission state, vector"
vector 114 FanetCoordinateNormale.attacker[2].wlan[0].radio receptionState:vector ETV
attr interpolationmode sample-hold
attr source receptionStateChanged
attr title "Radio reception state, vector"
vector 115 FanetCoordinateNormale.attacker[2].wlan[0].radio transmissionState:vector ETV
attr interpolationmode sample-hold
attr source transmissionStateChanged
attr title "Radio transmission state, vector"
vector 116 FanetCoordinateNormale.attacker[3].wlan[0].radio receptionState:vector ETV
attr interpolationmode sample-hold
attr source receptionStateChanged
attr title "Radio reception state, vector"
vector 117 FanetCoordinateNormale.attacker[3].wlan[0].radio transmissionState:vector ETV
attr interpolationmode sample-hold
attr source transmissionStateChanged
attr title "Radio transmission state, vector"
vector 118 FanetCoordinateNormale.attacker[4].wlan[0].radio receptionState:vector ETV
attr interpolationmode sample-hold
attr source receptionStateChanged
attr title "Radio reception state, vector"
vector 119 FanetCoordinateNormale.attacker[4].wlan[0].radio transmissionState:vector ETV
attr interpolationmode sample-hold
attr source transmissionStateChanged
attr title "Radio transmission state, vector"
vector 120 FanetCoordinateNormale.attacker[5].wlan[0].radio receptionState:vector ETV
attr interpolationmode sample-hold
attr source receptionStateChanged
attr title "Radio reception state, vector"
vector 121 FanetCoordinateNormale.attacker[5].wlan[0].radio transmissionState:vector ETV
attr interpolationmode sample-hold
attr source transmissionStateChanged
attr title "Radio transmission state, vector"
vector 122 FanetCoordinateNormale.attacker[6].wlan[0].radio receptionState:vector ETV
attr interpolationmode sample-hold
attr source receptionStateChanged
attr title "Radio reception state, vector"
vector 123 FanetCoordinateNormale.attacker[6].wlan[0].radio transmissionState:vector ETV
attr interpolationmode sample-hold
attr source transmissionStateChanged
attr title "Radio transmission state, vector"
vector 124 FanetCoordinateNormale.attacker[7].wlan[0].radio receptionState:vector ETV
attr interpolationmode sample-hold
attr source receptionStateChanged
attr title "Radio reception state, vector"
vector 125 FanetCoordinateNormale.attacker[7].wlan[0].radio transmissionState:vector ETV
attr interpolationmode sample-hold
attr source transmissionStateChanged
attr title "Radio transmission state, vector"
vector 126 FanetCoordinateNormale.attacker[8].wlan[0].radio receptionState:vector ETV
attr interpolationmode sample-hold
attr source receptionStateChanged
attr title "Radio reception state, vector"
vector 127 FanetCoordinateNormale.attacker[8].wlan[0].radio transmissionState:vector ETV
attr interpolationmode sample-hold
attr source transmissionStateChanged
attr title "Radio transmission state, vector"
vector 128 FanetCoordinateNormale.attacker[9].wlan[0].radio receptionState:vector ETV
attr interpolationmode sample-hold
attr source receptionStateChanged
attr title "Radio reception state, vector"
vector 129 FanetCoordinateNormale.attacker[9].wlan[0].radio transmissionState:vector ETV
attr interpolationmode sample-hold
attr source transmissionStateChanged
attr title "Radio transmission state, vector"
vector 130 FanetCoordinateNormale.attacker[10].wlan[0].radio receptionState:vector ETV
attr interpolationmode sample-hold
attr source receptionStateChanged
attr title "Radio reception state, vector"
vector 131 FanetCoordinateNormale.attacker[10].wlan[0].radio transmissionState:vector ETV
attr interpolationmode sample-hold
attr source transmissionStateChanged
attr title "Radio transmission state, vector"
vector 132 FanetCoordinateNormale.attacker[11].wlan[0].radio receptionState:vector ETV
attr interpolationmode sample-hold
attr source receptionStateChanged
attr title "Radio reception state, vector"
vector 133 FanetCoordinateNormale.attacker[11].wlan[0].radio transmissionState:vector ETV
attr interpolationmode sample-hold
attr source transmissionStateChanged
attr title "Radio transmission state, vector"
vector 134 FanetCoordinateNormale.attacker[12].wlan[0].radio receptionState:vector ETV
attr interpolationmode sample-hold
attr source receptionStateChanged
attr title "Radio reception state, vector"
vector 135 FanetCoordinateNormale.attacker[12].wlan[0].radio transmissionState:vector ETV
attr interpolationmode sample-hold
attr source transmissionStateChanged
attr title "Radio transmission state, vector"
vector 136 FanetCoordinateNormale.attacker[13].wlan[0].radio receptionState:vector ETV
attr interpolationmode sample-hold
attr source receptionStateChanged
attr title "Radio reception state, vector"
vector 137 FanetCoordinateNormale.attacker[13].wlan[0].radio transmissionState:vector ETV
attr interpolationmode sample-hold
attr source transmissionStateChanged
attr title "Radio transmission state, vector"
vector 138 FanetCoordinateNormale.attacker[14].wlan[0].radio receptionState:vector ETV
attr interpolationmode sample-hold
attr source receptionStateChanged
attr title "Radio reception state, vector"
vector 139 FanetCoordinateNormale.attacker[14].wlan[0].radio transmissionState:vector ETV
attr interpolationmode sample-hold
attr source transmissionStateChanged
attr title "Radio transmission state, vector"
vector 140 FanetCoordinateNormale.attacker[15].wlan[0].radio receptionState:vector ETV
attr interpolationmode sample-hold
attr source receptionStateChanged
attr title "Radio reception state, vector"
vector 141 FanetCoordinateNormale.attacker[15].wlan[0].radio transmissionState:vector ETV
attr interpolationmode sample-hold
attr source transmissionStateChanged
attr title "Radio transmission state, vector"
vector 142 FanetCoordinateNormale.attacker[16].wlan[0].radio receptionState:vector ETV
attr interpolationmode sample-hold
attr source receptionStateChanged
attr title "Radio reception state, vector"
vector 143 FanetCoordinateNormale.attacker[16].wlan[0].radio transmissionState:vector ETV
attr interpolationmode sample-hold
attr source transmissionStateChanged
attr title "Radio transmission state, vector"
vector 144 FanetCoordinateNormale.attacker[17].wlan[0].radio receptionState:vector ETV
attr interpolationmode sample-hold
attr source receptionStateChanged
attr title "Radio reception state, vector"
vector 145 FanetCoordinateNormale.attacker[17].wlan[0].radio transmissionState:vector ETV
attr interpolationmode sample-hold
attr source transmissionStateChanged
attr title "Radio transmission state, vector"
vector 146 FanetCoordinateNormale.attacker[18].wlan[0].radio receptionState:vector ETV
attr interpolationmode sample-hold
attr source receptionStateChanged
attr title "Radio reception state, vector"
vector 147 FanetCoordinateNormale.attacker[18].wlan[0].radio transmissionState:vector ETV
attr interpolationmode sample-hold
attr source transmissionStateChanged
attr title "Radio transmission state, vector"
vector 148 FanetCoordinateNormale.attacker[19].wlan[0].radio receptionState:vector ETV
attr interpolationmode sample-hold
attr source receptionStateChanged
attr title "Radio reception state, vector"
vector 149 FanetCoordinateNormale.attacker[19].wlan[0].radio transmissionState:vector ETV
attr interpolationmode sample-hold
attr source transmissionStateChanged
attr title "Radio transmission state, vector"
vector 150 FanetCoordinateNormale.attacker[2].wlan[0].mac rcvdPkFromHl:vector(packetBytes) ETV
attr interpolationmode none
attr source packetReceivedFromUpper
attr title "packets received from higher layer, vector(packetBytes)"
vector 151 FanetCoordinateNormale.attacker[2].wlan[0].mac.queue packetPushed:vector(packetBytes) ETV
attr interpolationmode none
attr title "packet pushed, vector(packetBytes)"
vector 152 FanetCoordinateNormale.attacker[2].wlan[0].mac.queue queueLength:vector ETV
attr interpolationmode sample-hold
attr source "count(packetPushed) - count(packetPopped) - count(packetRemoved) - count(packetDropped)"
attr title "queue length, vector"
vector 153 FanetCoordinateNormale.attacker[2].wlan[0].mac.queue packetPopped:vector(packetBytes) ETV
attr interpolationmode none
attr title "packet popped, vector(packetBytes)"
vector 154 FanetCoordinateNormale.attacker[2].wlan[0].mac.queue queueingTime:vector ETV
attr interpolationmode none
attr source queueingTime(packetPopped)
attr title "queueing times, vector"
attr unit s
vector 155 FanetCoordinateNormale.attacker[2].wlan[0].mac sentDownPk:vector(packetBytes) ETV
attr interpolationmode none
attr source packetSentToLower
attr title "packets sent to lower layer, vector(packetBytes)"
vector 156 FanetCoordinateNormale.host[15].wlan[0].mac rcvdPkFromLl:vector(packetBytes) ETV
attr interpolationmode none
attr source packetReceivedFromLower
attr title "packets received from lower layer, vector(packetBytes)"
vector 157 FanetCoordinateNormale.host[15].wlan[0].mac passedUpPk:vector(packetBytes) ETV
attr interpolationmode none
attr source packetSentToUpper
attr title "packets passed to higher layer, vector(packetBytes)"
vector 158 FanetCoordinateNormale.host[4].wlan[0].mac rcvdPkFromLl:vector(packetBytes) ETV
attr interpolationmode none
attr source packetReceivedFromLower
attr title "packets received from lower layer, vector(packetBytes)"
vector 159 FanetCoordinateNormale.host[4].wlan[0].mac passedUpPk:vector(packetBytes) ETV
attr interpolationmode none
attr source packetSentToUpper
attr title "packets passed to higher layer, vector(packetBytes)"
vector 160 FanetCoordinateNormale.host[16].wlan[0].mac rcvdPkFromLl:vector(packetBytes) ETV
attr interpolationmode none
attr source packetReceivedFromLower
attr title "packets received from lower layer, vector(packetBytes)"
vector 161 FanetCoordinateNormale.host[16].wlan[0].mac passedUpPk:vector(packetBytes) ETV
attr interpolationmode none
attr source packetSentToUpper
attr title "packets passed to higher layer, vector(packetBytes)"
vector 162 FanetCoordinateNormale.attacker[3].wlan[0].mac rcvdPkFromLl:vector(packetBytes) ETV
attr interpolationmode none
attr source packetReceivedFromLower
attr title "packets received from lower layer, vector(packetBytes)"
vector 163 FanetCoordinateNormale.attacker[3].wlan[0].mac passedUpPk:vector(packetBytes) ETV
attr interpolationmode none
attr source packetSentToUpper
attr title "packets passed to higher layer, vector(packetBytes)"
vector 164 FanetCoordinateNormale.attacker[5].wlan[0].mac rcvdPkFromLl:vector(packetBytes) ETV
attr interpolationmode none
attr source packetReceivedFromLower
attr title "packets received from lower layer, vector(packetBytes)"
vector 165 FanetCoordinateNormale.attacker[5].wlan[0].mac passedUpPk:vector(packetBytes) ETV
attr interpolationmode none
attr source packetSentToUpper
attr title "packets passed to higher layer, vector(packetBytes)"
vector 166 FanetCoordinateNormale.host[7].wlan[0].mac rcvdPkFromLl:vector(packetBytes) ETV
attr interpolationmode none
attr source packetReceivedFromLower
attr title "packets received from lower layer, vector(packetBytes)"
vector 167 FanetCoordinateNormale.host[7].wlan[0].mac passedUpPk:vector(packetBytes) ETV
attr interpolationmode none
attr source packetSentToUpper
attr title "packets passed to higher layer, vector(packetBytes)"
vector 168 FanetCoordinateNormale.host[15].wlan[0].mac rcvdPkFromHl:vector(packetBytes) ETV
attr interpolationmode none
attr source packetReceivedFromUpper
attr title "packets received from higher layer, vector(packetBytes)"
vector 169 FanetCoordinateNormale.host[15].wlan[0].mac.queue packetPushed:vector(packetBytes) ETV
attr interpolationmode none
attr title "packet pushed, vector(packetBytes)"
vector 170 FanetCoordinateNormale.host[15].wlan[0].mac.queue queueLength:vector ETV
attr interpolationmode sample-hold
attr source "count(packetPushed) - count(packetPopped) - count(packetRemoved) - count(packetDropped)"
attr title "queue length, vector"
vector 171 FanetCoordinateNormale.host[15].wlan[0].mac.queue packetPopped:vector(packetBytes) ETV
attr interpolationmode none
attr title "packet popped, vector(packetBytes)"
vector 172 FanetCoordinateNormale.host[15].wlan[0].mac.queue queueingTime:vector ETV
attr interpolationmode none
attr source queueingTime(packetPopped)
attr title "queueing times, vector"
attr unit s
vector 173 FanetCoordinateNormale.host[15].wlan[0].mac sentDownPk:vector(packetBytes) ETV
attr interpolationmode none
attr source packetSentToLower
attr title "packets sent to lower layer, vector(packetBytes)"
vector 174 FanetCoordinateNormale.attacker[2].wlan[0].mac rcvdPkFromLl:vector(packetBytes) ETV
attr interpolationmode none
attr source packetReceivedFromLower
attr title "packets received from lower layer, vector(packetBytes)"
vector 175 FanetCoordinateNormale.attacker[2].wlan[0].mac passedUpPk:vector(packetBytes) ETV
attr interpolationmode none
attr source packetSentToUpper
attr title "packets passed to higher layer, vector(packetBytes)"
vector 176 FanetCoordinateNormale.host[28].wlan[0].mac rcvdPkFromHl:vector(packetBytes) ETV
attr interpolationmode none
attr source packetReceivedFromUpper
attr title "packets received from higher layer, vector(packetBytes)"
vector 177 FanetCoordinateNormale.host[28].wlan[0].mac.queue packetPushed:vector(packetBytes) ETV
attr interpolationmode none
attr title "packet pushed, vector(packetBytes)"
vector 178 FanetCoordinateNormale.host[28].wlan[0].mac.queue queueLength:vector ETV
attr interpolationmode sample-hold
attr source "count(packetPushed) - count(packetPopped) - count(packetRemoved) - count(packetDropped)"
attr title "queue length, vector"
vector 179 FanetCoordinateNormale.host[28].wlan[0].mac.queue packetPopped:vector(packetBytes) ETV
attr interpolationmode none
attr title "packet popped, vector(packetBytes)"
vector 180 FanetCoordinateNormale.host[28].wlan[0].mac.queue queueingTime:vector ETV
attr interpolationmode none
attr source queueingTime(packetPopped)
attr title "queueing times, vector"
attr unit s
vector 181 FanetCoordinateNormale.host[28].wlan[0].mac sentDownPk:vector(packetBytes) ETV
attr interpolationmode none
attr source packetSentToLower
attr title "packets sent to lower layer, vector(packetBytes)"
vector 182 FanetCoordinateNormale.host[2].wlan[0].mac rcvdPkFromLl:vector(packetBytes) ETV
attr interpolationmode none
attr source packetReceivedFromLower
attr title "packets received from lower layer, vector(packetBytes)"
vector 183 FanetCoordinateNormale.host[2].wlan[0].mac passedUpPk:vector(packetBytes) ETV
attr interpolationmode none
attr source packetSentToUpper
attr title "packets passed to higher layer, vector(packetBytes)"
vector 184 FanetCoordinateNormale.attacker[1].wlan[0].mac rcvdPkFromLl:vector(packetBytes) ETV
attr interpolationmode none
attr source packetReceivedFromLower
attr title "packets received from lower layer, vector(packetBytes)"
vector 185 FanetCoordinateNormale.attacker[1].wlan[0].mac passedUpPk:vector(packetBytes) ETV
attr interpolationmode none
attr source packetSentToUpper
attr title "packets passed to higher layer, vector(packetBytes)"
vector 186 FanetCoordinateNormale.attacker[4].wlan[0].mac rcvdPkFromLl:vector(packetBytes) ETV
attr interpolationmode none
attr source packetReceivedFromLower
attr title "packets received from lower layer, vector(packetBytes)"
vector 187 FanetCoordinateNormale.attacker[4].wlan[0].mac passedUpPk:vector(packetBytes) ETV
attr interpolationmode none
attr source packetSentToUpper
attr title "packets passed to higher layer, vector(packetBytes)"
vector 188 FanetCoordinateNormale.host[3].wlan[0].mac rcvdPkFromLl:vector(packetBytes) ETV
attr interpolationmode none
attr source packetReceivedFromLower
attr title "packets received from lower layer, vector(packetBytes)"
vector 189 FanetCoordinateNormale.host[3].wlan[0].mac passedUpPk:vector(packetBytes) ETV
attr interpolationmode none
attr source packetSentToUpper
attr title "packets passed to higher layer, vector(packetBytes)"
vector 190 FanetCoordinateNormale.attacker[0].wlan[0].mac rcvdPkFromHl:vector(packetBytes) ETV
attr interpolationmode none
attr source packetReceivedFromUpper
attr title "packets received from higher layer, vector(packetBytes)"
vector 191 FanetCoordinateNormale.attacker[0].wlan[0].mac.queue packetPushed:vector(packetBytes) ETV
attr interpolationmode none
attr title "packet pushed, vector(packetBytes)"
vector 192 FanetCoordinateNormale.attacker[0].wlan[0].mac.queue queueLength:vector ETV
attr interpolationmode sample-hold
attr source "count(packetPushed) - count(packetPopped) - count(packetRemoved) - count(packetDropped)"
attr title "queue length, vector"
vector 193 FanetCoordinateNormale.attacker[0].wlan[0].mac.queue packetPopped:vector(packetBytes) ETV
attr interpolationmode none
attr title "packet popped, vector(packetBytes)"
vector 194 FanetCoordinateNormale.attacker[0].wlan[0].mac.queue queueingTime:vector ETV
attr interpolationmode none
attr source queueingTime(packetPopped)
attr title "queueing times, vector"
attr unit s
vector 195 FanetCoordinateNormale.attacker[0].wlan[0].mac sentDownPk:vector(packetBytes) ETV
attr interpolationmode none
attr source packetSentToLower
attr title "packets sent to lower layer, vector(packetBytes)"
vector 196 FanetCoordinateNormale.attacker[18].wlan[0].mac rcvdPkFromLl:vector(packetBytes) ETV
attr interpolationmode none
attr source packetReceivedFromLower
attr title "packets received from lower layer, vector(packetBytes)"
vector 197 FanetCoordinateNormale.attacker[18].wlan[0].mac passedUpPk:vector(packetBytes) ETV
attr interpolationmode none
attr source packetSentToUpper
attr title "packets passed to higher layer, vector(packetBytes)"
vector 198 FanetCoordinateNormale.host[27].wlan[0].mac rcvdPkFromLl:vector(packetBytes) ETV
attr interpolationmode none
attr source packetReceivedFromLower
attr title "packets received from lower layer, vector(packetBytes)"
vector 199 FanetCoordinateNormale.host[27].wlan[0].mac passedUpPk:vector(packetBytes) ETV
attr interpolationmode none
attr source packetSentToUpper
attr title "packets passed to higher layer, vector(packetBytes)"
vector 200 FanetCoordinateNormale.host[12].wlan[0].mac rcvdPkFromLl:vector(packetBytes) ETV
attr interpolationmode none
attr source packetReceivedFromLower
attr title "packets received from lower layer, vector(packetBytes)"
vector 201 FanetCoordinateNormale.host[12].wlan[0].mac passedUpPk:vector(packetBytes) ETV
attr interpolationmode none
attr source packetSentToUpper
attr title "packets passed to higher layer, vector(packetBytes)"
vector 202 FanetCoordinateNormale.attacker[10].wlan[0].mac rcvdPkFromLl:vector(packetBytes) ETV
attr interpolationmode none
attr source packetReceivedFromLower
attr title "packets received from lower layer, vector(packetBytes)"
vector 203 FanetCoordinateNormale.attacker[10].wlan[0].mac passedUpPk:vector(packetBytes) ETV
attr interpolationmode none
attr source packetSentToUpper
attr title "packets passed to higher layer, vector(packetBytes)"
vector 204 FanetCoordinateNormale.attacker[13].wlan[0].mac rcvdPkFromLl:vector(packetBytes) ETV
attr interpolationmode none
attr source packetReceivedFromLower
attr title "packets received from lower layer, vector(packetBytes)"
vector 205 FanetCoordinateNormale.attacker[13].wlan[0].mac passedUpPk:vector(packetBytes) ETV
attr interpolationmode none
attr source packetSentToUpper
attr title "packets passed to higher layer, vector(packetBytes)"
vector 206 FanetCoordinateNormale.attacker[18].wlan[0].mac rcvdPkFromHl:vector(packetBytes) ETV
attr interpolationmode none
attr source packetReceivedFromUpper
attr title "packets received from higher layer, vector(packetBytes)"
vector 207 FanetCoordinateNormale.attacker[18].wlan[0].mac.queue packetPushed:vector(packetBytes) ETV
attr interpolationmode none
attr title "packet pushed, vector(packetBytes)"
vector 208 FanetCoordinateNormale.attacker[18].wlan[0].mac.queue queueLength:vector ETV
attr interpolationmode sample-hold
attr source "count(packetPushed) - count(packetPopped) - count(packetRemoved) - count(packetDropped)"
attr title "queue length, vector"
vector 209 FanetCoordinateNormale.attacker[18].wlan[0].mac.queue packetPopped:vector(packetBytes) ETV
attr interpolationmode none
attr title "packet popped, vector(packetBytes)"
vector 210 FanetCoordinateNormale.attacker[18].wlan[0].mac.queue queueingTime:vector ETV
attr interpolationmode none
attr source queueingTime(packetPopped)
attr title "queueing times, vector"
attr unit s
vector 211 FanetCoordinateNormale.attacker[18].wlan[0].mac sentDownPk:vector(packetBytes) ETV
attr interpolationmode none
attr source packetSentToLower
attr title "packets sent to lower layer, vector(packetBytes)"
vector 212 FanetCoordinateNormale.attacker[0].wlan[0].mac rcvdPkFromLl:vector(packetBytes) ETV
attr interpolationmode none
attr source packetReceivedFromLower
attr title "packets received from lower layer, vector(packetBytes)"
vector 213 FanetCoordinateNormale.attacker[0].wlan[0].mac passedUpPk:vector(packetBytes) ETV
attr interpolationmode none
attr source packetSentToUpper
attr title "packets passed to higher layer, vector(packetBytes)"
vector 214 FanetCoordinateNormale.attacker[6].wlan[0].mac rcvdPkFromLl:vector(packetBytes) ETV
attr interpolationmode none
attr source packetReceivedFromLower
attr title "packets received from lower layer, vector(packetBytes)"
vector 215 FanetCoordinateNormale.attacker[6].wlan[0].mac passedUpPk:vector(packetBytes) ETV
attr interpolationmode none
attr source packetSentToUpper
attr title "packets passed to higher layer, vector(packetBytes)"
vector 216 FanetCoordinateNormale.attacker[7].wlan[0].mac rcvdPkFromHl:vector(packetBytes) ETV
attr interpolationmode none
attr source packetReceivedFromUpper
attr title "packets received from higher layer, vector(packetBytes)"
vector 217 FanetCoordinateNormale.attacker[7].wlan[0].mac.queue packetPushed:vector(packetBytes) ETV
attr interpolationmode none
attr title "packet pushed, vector(packetBytes)"
vector 218 FanetCoordinateNormale.attacker[7].wlan[0].mac.queue queueLength:vector ETV
attr interpolationmode sample-hold
attr source "count(packetPushed) - count(packetPopped) - count(packetRemoved) - count(packetDropped)"
attr title "queue length, vector"
vector 219 FanetCoordinateNormale.attacker[7].wlan[0].mac.queue packetPopped:vector(packetBytes) ETV
attr interpolationmode none
attr title "packet popped, vector(packetBytes)"
vector 220 FanetCoordinateNormale.attacker[7].wlan[0].mac.queue queueingTime:vector ETV
attr interpolationmode none
attr source queueingTime(packetPopped)
attr title "queueing times, vector"
attr unit s
vector 221 FanetCoordinateNormale.attacker[7].wlan[0].mac sentDownPk:vector(packetBytes) ETV
attr interpolationmode none
attr source packetSentToLower
attr title "packets sent to lower layer, vector(packetBytes)"
vector 222 FanetCoordinateNormale.host[6].wlan[0].mac rcvdPkFromLl:vector(packetBytes) ETV
attr interpolationmode none
attr source packetReceivedFromLower
attr title "packets received from lower layer, vector(packetBytes)"
vector 223 FanetCoordinateNormale.host[6].wlan[0].mac passedUpPk:vector(packetBytes) ETV
attr interpolationmode none
attr source packetSentToUpper
attr title "packets passed to higher layer, vector(packetBytes)"
vector 224 FanetCoordinateNormale.host[17].wlan[0].mac rcvdPkFromHl:vector(packetBytes) ETV
attr interpolationmode none
attr source packetReceivedFromUpper
attr title "packets received from higher layer, vector(packetBytes)"
vector 225 FanetCoordinateNormale.host[17].wlan[0].mac.queue packetPushed:vector(packetBytes) ETV
attr interpolationmode none
attr title "packet pushed, vector(packetBytes)"
vector 226 FanetCoordinateNormale.host[17].wlan[0].mac.queue queueLength:vector ETV
attr interpolationmode sample-hold
attr source "count(packetPushed) - count(packetPopped) - count(packetRemoved) - count(packetDropped)"
attr title "queue length, vector"
vector 227 FanetCoordinateNormale.host[17].wlan[0].mac.queue packetPopped:vector(packetBytes) ETV
attr interpolationmode none
attr title "packet popped, vector(packetBytes)"
vector 228 FanetCoordinateNormale.host[17].wlan[0].mac.queue queueingTime:vector ETV
attr interpolationmode none
attr source queueingTime(packetPopped)
attr title "queueing times, vector"
attr unit s
vector 229 FanetCoordinateNormale.host[17].wlan[0].mac sentDownPk:vector(packetBytes) ETV
attr interpolationmode none
attr source packetSentToLower
attr title "packets sent to lower layer, vector(packetBytes)"
vector 230 FanetCoordinateNormale.attacker[17].wlan[0].mac rcvdPkFromLl:vector(packetBytes) ETV
attr interpolationmode none
attr source packetReceivedFromLower
attr title "packets received from lower layer, vector(packetBytes)"
vector 231 FanetCoordinateNormale.attacker[17].wlan[0].mac passedUpPk:vector(packetBytes) ETV
attr interpolationmode none
attr source packetSentToUpper
attr title "packets passed to higher layer, vector(packetBytes)"
vector 232 FanetCoordinateNormale.attacker[19].wlan[0].mac rcvdPkFromLl:vector(packetBytes) ETV
attr interpolationmode none
attr source packetReceivedFromLower
attr title "packets received from lower layer, vector(packetBytes)"
vector 233 FanetCoordinateNormale.attacker[19].wlan[0].mac passedUpPk:vector(packetBytes) ETV
attr interpolationmode none
attr source packetSentToUpper
attr title "packets passed to higher layer, vector(packetBytes)"
vector 234 FanetCoordinateNormale.host[5].wlan[0].mac rcvdPkFromLl:vector(packetBytes) ETV
attr interpolationmode none
attr source packetReceivedFromLower
attr title "packets received from lower layer, vector(packetBytes)"
vector 235 FanetCoordinateNormale.host[5].wlan[0].mac passedUpPk:vector(packetBytes) ETV
attr interpolationmode none
attr source packetSentToUpper
attr title "packets passed to higher layer, vector(packetBytes)"
vector 236 FanetCoordinateNormale.attacker[11].wlan[0].mac rcvdPkFromLl:vector(packetBytes) ETV
attr interpolationmode none
attr source packetReceivedFromLower
attr title "packets received from lower layer, vector(packetBytes)"
vector 237 FanetCoordinateNormale.attacker[11].wlan[0].mac passedUpPk:vector(packetBytes) ETV
attr interpolationmode none
attr source packetSentToUpper
attr title "packets passed to higher layer, vector(packetBytes)"
vector 238 FanetCoordinateNormale.attacker[9].wlan[0].mac rcvdPkFromLl:vector(packetBytes) ETV
attr interpolationmode none
attr source packetReceivedFromLower
attr title "packets received from lower layer, vector(packetBytes)"
vector 239 FanetCoordinateNormale.attacker[9].wlan[0].mac passedUpPk:vector(packetBytes) ETV
attr interpolationmode none
attr source packetSentToUpper
attr title "packets passed to higher layer, vector(packetBytes)"
vector 240 FanetCoordinateNormale.attacker[14].wlan[0].mac rcvdPkFromLl:vector(packetBytes) ETV
attr interpolationmode none
attr source packetReceivedFromLower
attr title "packets received from lower layer, vector(packetBytes)"
vector 241 FanetCoordinateNormale.attacker[14].wlan[0].mac passedUpPk:vector(packetBytes) ETV
attr interpolationmode none
attr source packetSentToUpper
attr title "packets passed to higher layer, vector(packetBytes)"
vector 242 FanetCoordinateNormale.host[13].wlan[0].mac rcvdPkFromHl:vector(packetBytes) ETV
attr interpolationmode none
attr source packetReceivedFromUpper
attr title "packets received from higher layer, vector(packetBytes)"
vector 243 FanetCoordinateNormale.host[13].wlan[0].mac.queue packetPushed:vector(packetBytes) ETV
attr interpolationmode none
attr title "packet pushed, vector(packetBytes)"
vector 244 FanetCoordinateNormale.host[13].wlan[0].mac.queue queueLength:vector ETV
attr interpolationmode sample-hold
attr source "count(packetPushed) - count(packetPopped) - count(packetRemoved) - count(packetDropped)"
attr title "queue length, vector"
vector 245 FanetCoordinateNormale.host[13].wlan[0].mac.queue packetPopped:vector(packetBytes) ETV
attr interpolationmode none
attr title "packet popped, vector(packetBytes)"
vector 246 FanetCoordinateNormale.host[13].wlan[0].mac.queue queueingTime:vector ETV
attr interpolationmode none
attr source queueingTime(packetPopped)
attr title "queueing times, vector"
attr unit s
vector 247 FanetCoordinateNormale.host[13].wlan[0].mac sentDownPk:vector(packetBytes) ETV
attr interpolationmode none
attr source packetSentToLower
attr title "packets sent to lower layer, vector(packetBytes)"
vector 248 FanetCoordinateNormale.host[22].wlan[0].mac rcvdPkFromLl:vector(packetBytes) ETV
attr interpolationmode none
attr source packetReceivedFromLower
attr title "packets received from lower layer, vector(packetBytes)"
vector 249 FanetCoordinateNormale.host[22].wlan[0].mac passedUpPk:vector(packetBytes) ETV
attr interpolationmode none
attr source packetSentToUpper
attr title "packets passed to higher layer, vector(packetBytes)"
vector 250 FanetCoordinateNormale.host[24].wlan[0].mac rcvdPkFromLl:vector(packetBytes) ETV
attr interpolationmode none
attr source packetReceivedFromLower
attr title "packets received from lower layer, vector(packetBytes)"
vector 251 FanetCoordinateNormale.host[24].wlan[0].mac passedUpPk:vector(packetBytes) ETV
attr interpolationmode none
attr source packetSentToUpper
attr title "packets passed to higher layer, vector(packetBytes)"
vector 252 FanetCoordinateNormale.host[29].wlan[0].mac rcvdPkFromHl:vector(packetBytes) ETV
attr interpolationmode none
attr source packetReceivedFromUpper
attr title "packets received from higher layer, vector(packetBytes)"
vector 253 FanetCoordinateNormale.host[29].wlan[0].mac.queue packetPushed:vector(packetBytes) ETV
attr interpolationmode none
attr title "packet pushed, vector(packetBytes)"
vector 254 FanetCoordinateNormale.host[29].wlan[0].mac.queue queueLength:vector ETV
attr interpolationmode sample-hold
attr source "count(packetPushed) - count(packetPopped) - count(packetRemoved) - count(packetDropped)"
attr title "queue length, vector"
vector 255 FanetCoordinateNormale.host[29].wlan[0].mac.queue packetPopped:vector(packetBytes) ETV
attr interpolationmode none
attr title "packet popped, vector(packetBytes)"
vector 256 FanetCoordinateNormale.host[29].wlan[0].mac.queue queueingTime:vector ETV
attr interpolationmode none
attr source queueingTime(packetPopped)
attr title "queueing times, vector"
attr unit s
vector 257 FanetCoordinateNormale.host[29].wlan[0].mac sentDownPk:vector(packetBytes) ETV
attr interpolationmode none
attr source packetSentToLower
attr title "packets sent to lower layer, vector(packetBytes)"
vector 258 FanetCoordinateNormale.host[1].wlan[0].mac rcvdPkFromLl:vector(packetBytes) ETV
attr interpolationmode none
attr source packetReceivedFromLower
attr title "packets received from lower layer, vector(packetBytes)"
vector 259 FanetCoordinateNormale.host[1].wlan[0].mac passedUpPk:vector(packetBytes) ETV
attr interpolationmode none
attr source packetSentToUpper
attr title "packets passed to higher layer, vector(packetBytes)"
vector 260 FanetCoordinateNormale.attacker[3].wlan[0].mac rcvdPkFromHl:vector(packetBytes) ETV
attr interpolationmode none
attr source packetReceivedFromUpper
attr title "packets received from higher layer, vector(packetBytes)"
vector 261 FanetCoordinateNormale.attacker[3].wlan[0].mac.queue packetPushed:vector(packetBytes) ETV
attr interpolationmode none
attr title "packet pushed, vector(packetBytes)"
vector 262 FanetCoordinateNormale.attacker[3].wlan[0].mac.queue queueLength:vector ETV
attr interpolationmode sample-hold
attr source "count(packetPushed) - count(packetPopped) - count(packetRemoved) - count(packetDropped)"
attr title "queue length, vector"
vector 263 FanetCoordinateNormale.attacker[3].wlan[0].mac.queue packetPopped:vector(packetBytes) ETV
attr interpolationmode none
attr title "packet popped, vector(packetBytes)"
vector 264 FanetCoordinateNormale.attacker[3].wlan[0].mac.queue queueingTime:vector ETV
attr interpolationmode none
attr source queueingTime(packetPopped)
attr title "queueing times, vector"
attr unit s
vector 265 FanetCoordinateNormale.attacker[3].wlan[0].mac sentDownPk:vector(packetBytes) ETV
attr interpolationmode none
attr source packetSentToLower
attr title "packets sent to lower layer, vector(packetBytes)"
vector 266 FanetCoordinateNormale.host[18].wlan[0].mac rcvdPkFromLl:vector(packetBytes) ETV
attr interpolationmode none
attr source packetReceivedFromLower
attr title "packets received from lower layer, vector(packetBytes)"
vector 267 FanetCoordinateNormale.host[18].wlan[0].mac passedUpPk:vector(packetBytes) ETV
attr interpolationmode none
attr source packetSentToUpper
attr title "packets passed to higher layer, vector(packetBytes)"
vector 268 FanetCoordinateNormale.host[18].wlan[0].mac rcvdPkFromHl:vector(packetBytes) ETV
attr interpolationmode none
attr source packetReceivedFromUpper
attr title "packets received from higher layer, vector(packetBytes)"
vector 269 FanetCoordinateNormale.host[18].wlan[0].mac.queue packetPushed:vector(packetBytes) ETV
attr interpolationmode none
attr title "packet pushed, vector(packetBytes)"
vector 270 FanetCoordinateNormale.host[18].wlan[0].mac.queue queueLength:vector ETV
attr interpolationmode sample-hold
attr source "count(packetPushed) - count(packetPopped) - count(packetRemoved) - count(packetDropped)"
attr title "queue length, vector"
vector 271 FanetCoordinateNormale.host[18].wlan[0].mac.queue packetPopped:vector(packetBytes) ETV
attr interpolationmode none
attr title "packet popped, vector(packetBytes)"
vector 272 FanetCoordinateNormale.host[18].wlan[0].mac.queue queueingTime:vector ETV
attr interpolationmode none
attr source queueingTime(packetPopped)
attr title "queueing times, vector"
attr unit s
vector 273 FanetCoordinateNormale.host[18].wlan[0].mac sentDownPk:vector(packetBytes) ETV
attr interpolationmode none
attr source packetSentToLower
attr title "packets sent to lower layer, vector(packetBytes)"
vector 274 FanetCoordinateNormale.host[0].wlan[0].mac rcvdPkFromLl:vector(packetBytes) ETV
attr interpolationmode none
attr source packetReceivedFromLower
attr title "packets received from lower layer, vector(packetBytes)"
vector 275 FanetCoordinateNormale.host[0].wlan[0].mac passedUpPk:vector(packetBytes) ETV
attr interpolationmode none
attr source packetSentToUpper
attr title "packets passed to higher layer, vector(packetBytes)"
vector 276 FanetCoordinateNormale.host[9].wlan[0].mac rcvdPkFromLl:vector(packetBytes) ETV
attr interpolationmode none
attr source packetReceivedFromLower
attr title "packets received from lower layer, vector(packetBytes)"
vector 277 FanetCoordinateNormale.host[9].wlan[0].mac passedUpPk:vector(packetBytes) ETV
attr interpolationmode none
attr source packetSentToUpper
attr title "packets passed to higher layer, vector(packetBytes)"
vector 278 FanetCoordinateNormale.host[11].wlan[0].mac rcvdPkFromHl:vector(packetBytes) ETV
attr interpolationmode none
attr source packetReceivedFromUpper
attr title "packets received from higher layer, vector(packetBytes)"
vector 279 FanetCoordinateNormale.host[11].wlan[0].mac.queue packetPushed:vector(packetBytes) ETV
attr interpolationmode none
attr title "packet pushed, vector(packetBytes)"
vector 280 FanetCoordinateNormale.host[11].wlan[0].mac.queue queueLength:vector ETV
attr interpolationmode sample-hold
attr source "count(packetPushed) - count(packetPopped) - count(packetRemoved) - count(packetDropped)"
attr title "queue length, vector"
vector 281 FanetCoordinateNormale.host[11].wlan[0].mac.queue packetPopped:vector(packetBytes) ETV
attr interpolationmode none
attr title "packet popped, vector(packetBytes)"
vector 282 FanetCoordinateNormale.host[11].wlan[0].mac.queue queueingTime:vector ETV
attr interpolationmode none
attr source queueingTime(packetPopped)
attr title "queueing times, vector"
attr unit s
vector 283 FanetCoordinateNormale.host[11].wlan[0].mac sentDownPk:vector(packetBytes) ETV
attr interpolationmode none
attr source packetSentToLower
attr title "packets sent to lower layer, vector(packetBytes)"
vector 284 FanetCoordinateNormale.host[23].wlan[0].mac rcvdPkFromLl:vector(packetBytes) ETV
attr interpolationmode none
attr source packetReceivedFromLower
attr title "packets received from lower layer, vector(packetBytes)"
vector 285 FanetCoordinateNormale.host[23].wlan[0].mac passedUpPk:vector(packetBytes) ETV
attr interpolationmode none
attr source packetSentToUpper
attr title "packets passed to higher layer, vector(packetBytes)"
vector 286 FanetCoordinateNormale.host[25].wlan[0].mac rcvdPkFromHl:vector(packetBytes) ETV
attr interpolationmode none
attr source packetReceivedFromUpper
attr title "packets received from higher layer, vector(packetBytes)"
vector 287 FanetCoordinateNormale.host[25].wlan[0].mac.queue packetPushed:vector(packetBytes) ETV
attr interpolationmode none
attr title "packet pushed, vector(packetBytes)"
vector 288 FanetCoordinateNormale.host[25].wlan[0].mac.queue queueLength:vector ETV
attr interpolationmode sample-hold
attr source "count(packetPushed) - count(packetPopped) - count(packetRemoved) - count(packetDropped)"
attr title "queue length, vector"
vector 289 FanetCoordinateNormale.host[25].wlan[0].mac.queue packetPopped:vector(packetBytes) ETV
attr interpolationmode none
attr title "packet popped, vector(packetBytes)"
vector 290 FanetCoordinateNormale.host[25].wlan[0].mac.queue queueingTime:vector ETV
attr interpolationmode none
attr source queueingTime(packetPopped)
attr title "queueing times, vector"
attr unit s
vector 291 FanetCoordinateNormale.host[25].wlan[0].mac sentDownPk:vector(packetBytes) ETV
attr interpolationmode none
attr source packetSentToLower
attr title "packets sent to lower layer, vector(packetBytes)"
vector 292 FanetCoordinateNormale.attacker[12].wlan[0].mac rcvdPkFromLl:vector(packetBytes) ETV
attr interpolationmode none
attr source packetReceivedFromLower
attr title "packets received from lower layer, vector(packetBytes)"
vector 293 FanetCoordinateNormale.attacker[12].wlan[0].mac passedUpPk:vector(packetBytes) ETV
attr interpolationmode none
attr source packetSentToUpper
attr title "packets passed to higher layer, vector(packetBytes)"
vector 294 FanetCoordinateNormale.host[8].wlan[0].mac rcvdPkFromHl:vector(packetBytes) ETV
attr interpolationmode none
attr source packetReceivedFromUpper
attr title "packets received from higher layer, vector(packetBytes)"
vector 295 FanetCoordinateNormale.host[8].wlan[0].mac.queue packetPushed:vector(packetBytes) ETV
attr interpolationmode none
attr title "packet pushed, vector(packetBytes)"
vector 296 FanetCoordinateNormale.host[8].wlan[0].mac.queue queueLength:vector ETV
attr interpolationmode sample-hold
attr source "count(packetPushed) - count(packetPopped) - count(packetRemoved) - count(packetDropped)"
attr title "queue length, vector"
vector 297 FanetCoordinateNormale.host[8].wlan[0].mac.queue packetPopped:vector(packetBytes) ETV
attr interpolationmode none
attr title "packet popped, vector(packetBytes)"
vector 298 FanetCoordinateNormale.host[8].wlan[0].mac.queue queueingTime:vector ETV
attr interpolationmode none
attr source queueingTime(packetPopped)
attr title "queueing times, vector"
attr unit s
vector 299 FanetCoordinateNormale.host[8].wlan[0].mac sentDownPk:vector(packetBytes) ETV
attr interpolationmode none
attr source packetSentToLower
attr title "packets sent to lower layer, vector(packetBytes)"
vector 300 FanetCoordinateNormale.host[12].wlan[0].mac rcvdPkFromHl:vector(packetBytes) ETV
attr interpolationmode none
attr source packetReceivedFromUpper
attr title "packets received from higher layer, vector(packetBytes)"
vector 301 FanetCoordinateNormale.host[12].wlan[0].mac.queue packetPushed:vector(packetBytes) ETV
attr interpolationmode none
attr title "packet pushed, vector(packetBytes)"
vector 302 FanetCoordinateNormale.host[12].wlan[0].mac.queue queueLength:vector ETV
attr interpolationmode sample-hold
attr source "count(packetPushed) - count(packetPopped) - count(packetRemoved) - count(packetDropped)"
attr title "queue length, vector"
vector 303 FanetCoordinateNormale.host[12].wlan[0].mac.queue packetPopped:vector(packetBytes) ETV
attr interpolationmode none
attr title "packet popped, vector(packetBytes)"
vector 304 FanetCoordinateNormale.host[12].wlan[0].mac.queue queueingTime:vector ETV
attr interpolationmode none
attr source queueingTime(packetPopped)
attr title "queueing times, vector"
attr unit s
vector 305 FanetCoordinateNormale.host[12].wlan[0].mac sentDownPk:vector(packetBytes) ETV
attr interpolationmode none
attr source packetSentToLower
attr title "packets sent to lower layer, vector(packetBytes)"
vector 306 FanetCoordinateNormale.attacker[14].wlan[0].mac rcvdPkFromHl:vector(packetBytes) ETV
attr interpolationmode none
attr source packetReceivedFromUpper
attr title "packets received from higher layer, vector(packetBytes)"
vector 307 FanetCoordinateNormale.attacker[14].wlan[0].mac.queue packetPushed:vector(packetBytes) ETV
attr interpolationmode none
attr title "packet pushed, vector(packetBytes)"
vector 308 FanetCoordinateNormale.attacker[14].wlan[0].mac.queue queueLength:vector ETV
attr interpolationmode sample-hold
attr source "count(packetPushed) - count(packetPopped) - count(packetRemoved) - count(packetDropped)"
attr title "queue length, vector"
vector 309 FanetCoordinateNormale.attacker[14].wlan[0].mac.queue packetPopped:vector(packetBytes) ETV
attr interpolationmode none
attr title "packet popped, vector(packetBytes)"
vector 310 FanetCoordinateNormale.attacker[14].wlan[0].mac.queue queueingTime:vector ETV
attr interpolationmode none
attr source queueingTime(packetPopped)
attr title "queueing times, vector"
attr unit s
vector 311 FanetCoordinateNormale.attacker[14].wlan[0].mac sentDownPk:vector(packetBytes) ETV
attr interpolationmode none
attr source packetSentToLower
attr title "packets sent to lower layer, vector(packetBytes)"
vector 312 FanetCoordinateNormale.host[17].wlan[0].mac rcvdPkFromLl:vector(packetBytes) ETV
attr interpolationmode none
attr source packetReceivedFromLower
attr title "packets received from lower layer, vector(packetBytes)"
vector 313 FanetCoordinateNormale.host[17].wlan[0].mac passedUpPk:vector(packetBytes) ETV
attr interpolationmode none
attr source packetSentToUpper
attr title "packets passed to higher layer, vector(packetBytes)"
vector 314 FanetCoordinateNormale.attacker[11].wlan[0].mac rcvdPkFromHl:vector(packetBytes) ETV
attr interpolationmode none
attr source packetReceivedFromUpper
attr title "packets received from higher layer, vector(packetBytes)"
vector 315 FanetCoordinateNormale.attacker[11].wlan[0].mac.queue packetPushed:vector(packetBytes) ETV
attr interpolationmode none
attr title "packet pushed, vector(packetBytes)"
vector 316 FanetCoordinateNormale.attacker[11].wlan[0].mac.queue queueLength:vector ETV
attr interpolationmode sample-hold
attr source "count(packetPushed) - count(packetPopped) - count(packetRemoved) - count(packetDropped)"
attr title "queue length, vector"
vector 317 FanetCoordinateNormale.attacker[11].wlan[0].mac.queue packetPopped:vector(packetBytes) ETV
attr interpolationmode none
attr title "packet popped, vector(packetBytes)"
vector 318 FanetCoordinateNormale.attacker[11].wlan[0].mac.queue queueingTime:vector ETV
attr interpolationmode none
attr source queueingTime(packetPopped)
attr title "queueing times, vector"
attr unit s
vector 319 FanetCoordinateNormale.attacker[11].wlan[0].mac sentDownPk:vector(packetBytes) ETV
attr interpolationmode none
attr source packetSentToLower
attr title "packets sent to lower layer, vector(packetBytes)"
vector 320 FanetCoordinateNormale.host[19].wlan[0].mac rcvdPkFromLl:vector(packetBytes) ETV
attr interpolationmode none
attr source packetReceivedFromLower
attr title "packets received from lower layer, vector(packetBytes)"
vector 321 FanetCoordinateNormale.host[19].wlan[0].mac passedUpPk:vector(packetBytes) ETV
attr interpolationmode none
attr source packetSentToUpper
attr title "packets passed to higher layer, vector(packetBytes)"
vector 322 FanetCoordinateNormale.host[19].wlan[0].mac rcvdPkFromHl:vector(packetBytes) ETV
attr interpolationmode none
attr source packetReceivedFromUpper
attr title "packets received from higher layer, vector(packetBytes)"
vector 323 FanetCoordinateNormale.host[19].wlan[0].mac.queue packetPushed:vector(packetBytes) ETV
attr interpolationmode none
attr title "packet pushed, vector(packetBytes)"
vector 324 FanetCoordinateNormale.host[19].wlan[0].mac.queue queueLength:vector ETV
attr interpolationmode sample-hold
attr source "count(packetPushed) - count(packetPopped) - count(packetRemoved) - count(packetDropped)"
attr title "queue length, vector"
vector 325 FanetCoordinateNormale.host[19].wlan[0].mac.queue packetPopped:vector(packetBytes) ETV
attr interpolationmode none
attr title "packet popped, vector(packetBytes)"
vector 326 FanetCoordinateNormale.host[19].wlan[0].mac.queue queueingTime:vector ETV
attr interpolationmode none
attr source queueingTime(packetPopped)
attr title "queueing times, vector"
attr unit s
vector 327 FanetCoordinateNormale.host[19].wlan[0].mac sentDownPk:vector(packetBytes) ETV
attr interpolationmode none
attr source packetSentToLower
attr title "packets sent to lower layer, vector(packetBytes)"
vector 328 FanetCoordinateNormale.host[10].wlan[0].mac rcvdPkFromLl:vector(packetBytes) ETV
attr interpolationmode none
attr source packetReceivedFromLower
attr title "packets received from lower layer, vector(packetBytes)"
vector 329 FanetCoordinateNormale.host[10].wlan[0].mac passedUpPk:vector(packetBytes) ETV
attr interpolationmode none
attr source packetSentToUpper
attr title "packets passed to higher layer, vector(packetBytes)"
vector 330 FanetCoordinateNormale.host[20].wlan[0].mac rcvdPkFromLl:vector(packetBytes) ETV
attr interpolationmode none
attr source packetReceivedFromLower
attr title "packets received from lower layer, vector(packetBytes)"
vector 331 FanetCoordinateNormale.host[20].wlan[0].mac passedUpPk:vector(packetBytes) ETV
attr interpolationmode none
attr source packetSentToUpper
attr title "packets passed to higher layer, vector(packetBytes)"
vector 332 FanetCoordinateNormale.attacker[15].wlan[0].mac rcvdPkFromLl:vector(packetBytes) ETV
attr interpolationmode none
attr source packetReceivedFromLower
attr title "packets received from lower layer, vector(packetBytes)"
vector 333 FanetCoordinateNormale.attacker[15].wlan[0].mac passedUpPk:vector(packetBytes) ETV
attr interpolationmode none
attr source packetSentToUpper
attr title "packets passed to higher layer, vector(packetBytes)"
vector 334 FanetCoordinateNormale.host[23].wlan[0].mac rcvdPkFromHl:vector(packetBytes) ETV
attr interpolationmode none
attr source packetReceivedFromUpper
attr title "packets received from higher layer, vector(packetBytes)"
vector 335 FanetCoordinateNormale.host[23].wlan[0].mac.queue packetPushed:vector(packetBytes) ETV
attr interpolationmode none
attr title "packet pushed, vector(packetBytes)"
vector 336 FanetCoordinateNormale.host[23].wlan[0].mac.queue queueLength:vector ETV
attr interpolationmode sample-hold
attr source "count(packetPushed) - count(packetPopped) - count(packetRemoved) - count(packetDropped)"
attr title "queue length, vector"
vector 337 FanetCoordinateNormale.host[23].wlan[0].mac.queue packetPopped:vector(packetBytes) ETV
attr interpolationmode none
attr title "packet popped, vector(packetBytes)"
vector 338 FanetCoordinateNormale.host[23].wlan[0].mac.queue queueingTime:vector ETV
attr interpolationmode none
attr source queueingTime(packetPopped)
attr title "queueing times, vector"
attr unit s
vector 339 FanetCoordinateNormale.host[23].wlan[0].mac sentDownPk:vector(packetBytes) ETV
attr interpolationmode none
attr source packetSentToLower
attr title "packets sent to lower layer, vector(packetBytes)"
vector 340 FanetCoordinateNormale.host[11].wlan[0].mac rcvdPkFromLl:vector(packetBytes) ETV
attr interpolationmode none
attr source packetReceivedFromLower
attr title "packets received from lower layer, vector(packetBytes)"
vector 341 FanetCoordinateNormale.host[11].wlan[0].mac passedUpPk:vector(packetBytes) ETV
attr interpolationmode none
attr source packetSentToUpper
attr title "packets passed to higher layer, vector(packetBytes)"
vector 342 FanetCoordinateNormale.attacker[15].wlan[0].mac rcvdPkFromHl:vector(packetBytes) ETV
attr interpolationmode none
attr source packetReceivedFromUpper
attr title "packets received from higher layer, vector(packetBytes)"
vector 343 FanetCoordinateNormale.attacker[15].wlan[0].mac.queue packetPushed:vector(packetBytes) ETV
attr interpolationmode none
attr title "packet pushed, vector(packetBytes)"
vector 344 FanetCoordinateNormale.attacker[15].wlan[0].mac.queue queueLength:vector ETV
attr interpolationmode sample-hold
attr source "count(packetPushed) - count(packetPopped) - count(packetRemoved) - count(packetDropped)"
attr title "queue length, vector"
vector 345 FanetCoordinateNormale.attacker[15].wlan[0].mac.queue packetPopped:vector(packetBytes) ETV
attr interpolationmode none
attr title "packet popped, vector(packetBytes)"
vector 346 FanetCoordinateNormale.attacker[15].wlan[0].mac.queue queueingTime:vector ETV
attr interpolationmode none
attr source queueingTime(packetPopped)
attr title "queueing times, vector"
attr unit s
vector 347 FanetCoordinateNormale.attacker[15].wlan[0].mac sentDownPk:vector(packetBytes) ETV
attr interpolationmode none
attr source packetSentToLower
attr title "packets sent to lower layer, vector(packetBytes)"
vector 348 FanetCoordinateNormale.host[22].wlan[0].mac rcvdPkFromHl:vector(packetBytes) ETV
attr interpolationmode none
attr source packetReceivedFromUpper
attr title "packets received from higher layer, vector(packetBytes)"
vector 349 FanetCoordinateNormale.host[22].wlan[0].mac.queue packetPushed:vector(packetBytes) ETV
attr interpolationmode none
attr title "packet pushed, vector(packetBytes)"
vector 350 FanetCoordinateNormale.host[22].wlan[0].mac.queue queueLength:vector ETV
attr interpolationmode sample-hold
attr source "count(packetPushed) - count(packetPopped) - count(packetRemoved) - count(packetDropped)"
attr title "queue length, vector"
vector 351 FanetCoordinateNormale.host[22].wlan[0].mac.queue packetPopped:vector(packetBytes) ETV
attr interpolationmode none
attr title "packet popped, vector(packetBytes)"
vector 352 FanetCoordinateNormale.host[22].wlan[0].mac.queue queueingTime:vector ETV
attr interpolationmode none
attr source queueingTime(packetPopped)
attr title "queueing times, vector"
attr unit s
vector 353 FanetCoordinateNormale.host[22].wlan[0].mac sentDownPk:vector(packetBytes) ETV
attr interpolationmode none
attr source packetSentToLower
attr title "packets sent to lower layer, vector(packetBytes)"
vector 354 FanetCoordinateNormale.host[13].wlan[0].mac rcvdPkFromLl:vector(packetBytes) ETV
attr interpolationmode none
attr source packetReceivedFromLower
attr title "packets received from lower layer, vector(packetBytes)"
vector 355 FanetCoordinateNormale.host[13].wlan[0].mac passedUpPk:vector(packetBytes) ETV
attr interpolationmode none
attr source packetSentToUpper
attr title "packets passed to higher layer, vector(packetBytes)"
vector 356 FanetCoordinateNormale.host[6].wlan[0].mac rcvdPkFromHl:vector(packetBytes) ETV
attr interpolationmode none
attr source packetReceivedFromUpper
attr title "packets received from higher layer, vector(packetBytes)"
vector 357 FanetCoordinateNormale.host[6].wlan[0].mac.queue packetPushed:vector(packetBytes) ETV
attr interpolationmode none
attr title "packet pushed, vector(packetBytes)"
vector 358 FanetCoordinateNormale.host[6].wlan[0].mac.queue queueLength:vector ETV
attr interpolationmode sample-hold
attr source "count(packetPushed) - count(packetPopped) - count(packetRemoved) - count(packetDropped)"
attr title "queue length, vector"
vector 359 FanetCoordinateNormale.host[6].wlan[0].mac.queue packetPopped:vector(packetBytes) ETV
attr interpolationmode none
attr title "packet popped, vector(packetBytes)"
vector 360 FanetCoordinateNormale.host[6].wlan[0].mac.queue queueingTime:vector ETV
attr interpolationmode none
attr source queueingTime(packetPopped)
attr title "queueing times, vector"
attr unit s
vector 361 FanetCoordinateNormale.host[6].wlan[0].mac sentDownPk:vector(packetBytes) ETV
attr interpolationmode none
attr source packetSentToLower
attr title "packets sent to lower layer, vector(packetBytes)"
vector 362 FanetCoordinateNormale.attacker[7].wlan[0].mac rcvdPkFromLl:vector(packetBytes) ETV
attr interpolationmode none
attr source packetReceivedFromLower
attr title "packets received from lower layer, vector(packetBytes)"
vector 363 FanetCoordinateNormale.attacker[7].wlan[0].mac passedUpPk:vector(packetBytes) ETV
attr interpolationmode none
attr source packetSentToUpper
attr title "packets passed to higher layer, vector(packetBytes)"
vector 364 FanetCoordinateNormale.host[0].wlan[0].mac rcvdPkFromHl:vector(packetBytes) ETV
attr interpolationmode none
attr source packetReceivedFromUpper
attr title "packets received from higher layer, vector(packetBytes)"
vector 365 FanetCoordinateNormale.host[0].wlan[0].mac.queue packetPushed:vector(packetBytes) ETV
attr interpolationmode none
attr title "packet pushed, vector(packetBytes)"
vector 366 FanetCoordinateNormale.host[0].wlan[0].mac.queue queueLength:vector ETV
attr interpolationmode sample-hold
attr source "count(packetPushed) - count(packetPopped) - count(packetRemoved) - count(packetDropped)"
attr title "queue length, vector"
vector 367 FanetCoordinateNormale.host[0].wlan[0].mac.queue packetPopped:vector(packetBytes) ETV
attr interpolationmode none
attr title "packet popped, vector(packetBytes)"
vector 368 FanetCoordinateNormale.host[0].wlan[0].mac.queue queueingTime:vector ETV
attr interpolationmode none
attr source queueingTime(packetPopped)
attr title "queueing times, vector"
attr unit s
[...]
600	605822	393.8	0
600	605822	393.9	0
600	605822	394	0
600	605822	394.1	0
600	605822	394.2	0
600	605822	394.3	0
600	605822	394.4	0
600	605822	394.5	0
600	605822	394.6	0
600	605822	394.7	0
600	605822	394.8	0
600	605822	394.9	0
600	605822	395	0
600	605822	395.1	0
600	605822	395.2	0
600	605822	395.3	0
600	605822	395.4	0
600	605822	395.5	0
600	605822	395.6	0
600	605822	395.7	0
600	605822	395.8	0
600	605822	395.9	0
600	605822	396	0
600	605822	396.1	0
600	605822	396.2	0
600	605822	396.3	0
600	605822	396.4	0
600	605822	396.5	0
600	605822	396.6	0
600	605822	396.7	0
600	605822	396.8	0
600	605822	396.9	0
600	605822	397	0
600	605822	397.1	0
600	605822	397.2	0
600	605822	397.3	0
600	605822	397.4	0
600	605822	397.5	0
600	605822	397.6	0
600	605822	397.7	0
600	605822	397.8	0
600	605822	397.9	0
600	605822	398	0
600	605822	398.1	0
600	605822	398.2	0
600	605822	398.3	0
600	605822	398.4	0
600	605822	398.5	0
600	605822	398.6	0
600	605822	398.7	0
600	605822	398.8	0
600	605822	398.9	0
600	605822	399	0
600	605822	399.1	0
600	605822	399.2	0
600	605822	399.3	0
600	605822	399.4	0
600	605822	399.5	0
600	605822	399.6	0
600	605822	399.7	0
600	605822	399.8	0
600	605822	399.9	0
600	605822	400	0
600	605822	400.1	0
600	605822	400.2	0
600	605822	400.3	0
600	605822	400.4	0
600	605822	400.5	0
600	605822	400.6	0
600	605822	400.7	0
600	605822	400.8	0
600	605822	400.9	0
600	605822	401	0
600	605822	401.1	0
600	605822	401.2	0
600	605822	401.3	0
600	605822	401.4	0
600	605822	401.5	0
600	605822	401.6	0
600	605822	401.7	0
600	605822	401.8	0
600	605822	401.9	0
600	605822	402	0
600	605822	402.1	0
600	605822	402.2	0
600	605822	402.3	0
600	605822	402.4	0
600	605822	402.5	0
600	605822	402.6	0
600	605822	402.7	0
600	605822	402.8	0
600	605822	402.9	0
600	605822	403	0
600	605822	403.1	0
600	605822	403.2	0
600	605822	403.3	0
600	605822	403.4	0
600	605822	403.5	0
600	605822	403.6	0
600	605822	403.7	0
600	605822	403.8	0
600	605822	403.9	0
600	605822	404	0
600	605822	404.1	0
600	605822	404.2	0
600	605822	404.3	0
600	605822	404.4	0
600	605822	404.5	0
600	605822	404.6	0
600	605822	404.7	0
600	605822	404.8	0
600	605822	404.9	0
600	605822	405	0
600	605822	405.1	0
600	605822	405.2	0
600	605822	405.3	0
600	605822	405.4	0
600	605822	405.5	0
600	605822	405.6	0
600	605822	405.7	0
600	605822	405.8	0
600	605822	405.9	0
600	605822	406	0
600	605822	406.1	0
600	605822	406.2	0
600	605822	406.3	0
600	605822	406.4	0
600	605822	406.5	0
600	605822	406.6	0
600	605822	406.7	0
600	605822	406.8	0
600	605822	406.9	0
600	605822	407	0
600	605822	407.1	0
600	605822	407.2	0
600	605822	407.3	0
600	605822	407.4	0
600	605822	407.5	0
600	605822	407.6	0
600	605822	407.7	0
600	605822	407.8	0
600	605822	407.9	0
600	605822	408	0
600	605822	408.1	0
600	605822	408.2	0
600	605822	408.3	0
600	605822	408.4	0
600	605822	408.5	0
600	605822	408.6	0
600	605822	408.7	0
600	605822	408.8	0
600	605822	408.9	0
600	605822	409	0
600	605822	409.1	0
600	605822	409.2	0
600	605822	409.3	0
600	605822	409.4	0
600	605822	409.5	0
600	605822	409.6	0
600	605822	409.7	0
600	605822	409.8	0
600	605822	409.9	0
600	605822	410	0
600	605822	410.1	0
600	605822	410.2	0
600	605822	410.3	0
600	605822	410.4	0
600	605822	410.5	0
600	605822	410.6	0
600	605822	410.7	0
600	605822	410.8	0
600	605822	410.9	0
600	605822	411	0
600	605822	411.1	0
600	605822	411.2	0
600	605822	411.3	0
600	605822	411.4	0
600	605822	411.5	0
600	605822	411.6	0
600	605822	411.7	0
600	605822	411.8	0
600	605822	411.9	0
600	605822	412	0
600	605822	412.1	0
600	605822	412.2	0
600	605822	412.3	0
600	605822	412.4	0
600	605822	412.5	0
600	605822	412.6	0
600	605822	412.7	0
600	605822	412.8	0
600	605822	412.9	0
600	605822	413	0
600	605822	413.1	0
600	605822	413.2	0
600	605822	413.3	0
600	605822	413.4	0
600	605822	413.5	0
600	605822	413.6	0
600	605822	413.7	0
600	605822	413.8	0
600	605822	413.9	0
600	605822	414	0
600	605822	414.1	0
600	605822	414.2	0
600	605822	414.3	0
600	605822	414.4	0
600	605822	414.5	0
600	605822	414.6	0
600	605822	414.7	0
600	605822	414.8	0
600	605822	414.9	0
600	605822	415	0
600	605822	415.1	0
600	605822	415.2	0
600	605822	415.3	0
600	605822	415.4	0
600	605822	415.5	0
600	605822	415.6	0
600	605822	415.7	0
600	605822	415.8	0
600	605822	415.9	0
600	605822	416	0
600	605822	416.1	0
600	605822	416.2	0
600	605822	416.3	0
600	605822	416.4	0
600	605822	416.5	0
600	605822	416.6	0
600	605822	416.7	0
600	605822	416.8	0
600	605822	416.9	0
600	605822	417	0
600	605822	417.1	0
600	605822	417.2	0
600	605822	417.3	0
600	605822	417.4	0
600	605822	417.5	0
600	605822	417.6	0
600	605822	417.7	0
600	605822	417.8	0
600	605822	417.9	0
600	605822	418	0
600	605822	418.1	0
600	605822	418.2	0
600	605822	418.3	0
600	605822	418.4	0
600	605822	418.5	0
600	605822	418.6	0
600	605822	418.7	0
600	605822	418.8	0
600	605822	418.9	0
600	605822	419	0
600	605822	419.1	0
600	605822	419.2	0
600	605822	419.3	0
600	605822	419.4	0
600	605822	419.5	0
600	605822	419.6	0
600	605822	419.7	0
600	605822	419.8	0
600	605822	419.9	0
600	605822	420	0
600	605822	420.1	0
600	605822	420.2	0
600	605822	420.3	0
600	605822	420.4	0
600	605822	420.5	0
600	605822	420.6	0
600	605822	420.7	0
600	605822	420.8	0
600	605822	420.9	0
600	605822	421	0
600	605822	421.1	0
600	605822	421.2	0
600	605822	421.3	0
600	605822	421.4	0
600	605822	421.5	0
600	605822	421.6	0
600	605822	421.7	0
600	605822	421.8	0
600	605822	421.9	0
600	605822	422	0
600	605822	422.1	0
600	605822	422.2	0
600	605822	422.3	0
600	605822	422.4	0
600	605822	422.5	0
600	605822	422.6	0
600	605822	422.7	0
600	605822	422.8	0
600	605822	422.9	0
600	605822	423	0
600	605822	423.1	0
600	605822	423.2	0
600	605822	423.3	0
600	605822	423.4	0
600	605822	423.5	0
600	605822	423.6	0
600	605822	423.7	0
600	605822	423.8	0
600	605822	423.9	0
600	605822	424	0
600	605822	424.1	0
600	605822	424.2	0
600	605822	424.3	0
600	605822	424.4	0
600	605822	424.5	0
600	605822	424.6	0
600	605822	424.7	0
600	605822	424.8	0
600	605822	424.9	0
600	605822	425	0
600	605822	425.1	0
600	605822	425.2	0
600	605822	425.3	0
600	605822	425.4	0
600	605822	425.5	0
600	605822	425.6	0
600	605822	425.7	0
600	605822	425.8	0
600	605822	425.9	0
600	605822	426	0
600	605822	426.1	0
600	605822	426.2	0
600	605822	426.3	0
600	605822	426.4	0
600	605822	426.5	0
600	605822	426.6	0
600	605822	426.7	0
600	605822	426.8	0
600	605822	426.9	0
600	605822	427	0
600	605822	427.1	0
600	605822	427.2	0
600	605822	427.3	0
600	605822	427.4	0
600	605822	427.5	0
600	605822	427.6	0
600	605822	427.7	0
600	605822	427.8	0
600	605822	427.9	0
600	605822	428	0
600	605822	428.1	0
600	605822	428.2	0
600	605822	428.3	0
600	605822	428.4	0
600	605822	428.5	0
600	605822	428.6	0
600	605822	428.7	0
600	605822	428.8	0
600	605822	428.9	0
600	605822	429	0
600	605822	429.1	0
600	605822	429.2	0
600	605822	429.3	0
600	605822	429.4	0
600	605822	429.5	0
600	605822	429.6	0
600	605822	429.7	0
600	605822	429.8	0
600	605822	429.9	0
600	605822	430	0
600	605822	430.1	0
600	605822	430.2	0
600	605822	430.3	0
600	605822	430.4	0
600	605822	430.5	0
600	605822	430.6	0
600	605822	430.7	0
600	605822	430.8	0
600	605822	430.9	0
600	605822	431	0
600	605822	431.1	0
600	605822	431.2	0
600	605822	431.3	0
600	605822	431.4	0
600	605822	431.5	0
600	605822	431.6	0
600	605822	431.7	0
600	605822	431.8	0
600	605822	431.9	0
600	605822	432	0
600	605822	432.1	0
600	605822	432.2	0
600	605822	432.3	0
600	605822	432.4	0
600	605822	432.5	0
600	605822	432.6	0
600	605822	432.7	0
600	605822	432.8	0
600	605822	432.9	0
600	605822	433	0
600	605822	433.1	0
600	605822	433.2	0
600	605822	433.3	0
600	605822	433.4	0
600	605822	433.5	0
600	605822	433.6	0
600	605822	433.7	0
600	605822	433.8	0
600	605822	433.9	0
600	605822	434	0
600	605822	434.1	0
600	605822	434.2	0
600	605822	434.3	0
600	605822	434.4	0
600	605822	434.5	0
600	605822	434.6	0
600	605822	434.7	0
600	605822	434.8	0
600	605822	434.9	0
600	605822	435	0
600	605822	435.1	0
600	605822	435.2	0
600	605822	435.3	0
600	605822	435.4	0
600	605822	435.5	0
600	605822	435.6	0
600	605822	435.7	0
600	605822	435.8	0
600	605822	435.9	0
600	605822	436	0
600	605822	436.1	0
600	605822	436.2	0
600	605822	436.3	0
600	605822	436.4	0
600	605822	436.5	0
600	605822	436.6	0
600	605822	436.7	0
600	605822	436.8	0
600	605822	436.9	0
600	605822	437	0
600	605822	437.1	0
600	605822	437.2	0
600	605822	437.3	0
600	605822	437.4	0
600	605822	437.5	0
600	605822	437.6	0
600	605822	437.7	0
600	605822	437.8	0
600	605822	437.9	0
600	605822	438	0
600	605822	438.1	0
600	605822	438.2	0
600	605822	438.3	0
600	605822	438.4	0
600	605822	438.5	0
600	605822	438.6	0
600	605822	438.7	0
600	605822	438.8	0
600	605822	438.9	0
600	605822	439	0
600	605822	439.1	0
600	605822	439.2	0
600	605822	439.3	0
600	605822	439.4	0
600	605822	439.5	0
600	605822	439.6	0
600	605822	439.7	0
600	605822	439.8	0
600	605822	439.9	0
600	605822	440	0
600	605822	440.1	0
600	605822	440.2	0
600	605822	440.3	0
600	605822	440.4	0
600	605822	440.5	0
600	605822	440.6	0
600	605822	440.7	0
600	605822	440.8	0
600	605822	440.9	0
600	605822	441	0
600	605822	441.1	0
600	605822	441.2	0
600	605822	441.3	0
600	605822	441.4	0
600	605822	441.5	0
600	605822	441.6	0
600	605822	441.7	0
600	605822	441.8	0
600	605822	441.9	0
600	605822	442	0
600	605822	442.1	0
600	605822	442.2	0
600	605822	442.3	0
600	605822	442.4	0
600	605822	442.5	0
600	605822	442.6	0
600	605822	442.7	0
600	605822	442.8	0
600	605822	442.9	0
600	605822	443	0
600	605822	443.1	0
600	605822	443.2	0
600	605822	443.3	0
600	605822	443.4	0
600	605822	443.5	0
600	605822	443.6	0
600	605822	443.7	0
600	605822	443.8	0
600	605822	443.9	0
600	605822	444	0
600	605822	444.1	0
600	605822	444.2	0
600	605822	444.3	0
600	605822	444.4	0
600	605822	444.5	0
600	605822	444.6	0
600	605822	444.7	0
600	605822	444.8	0
600	605822	444.9	0
600	605822	445	0
600	605822	445.1	0
600	605822	445.2	0
600	605822	445.3	0
600	605822	445.4	0
600	605822	445.5	0
600	605822	445.6	0
600	605822	445.7	0
600	605822	445.8	0
600	605822	445.9	0
600	605822	446	0
600	605822	446.1	0
600	605822	446.2	0
600	605822	446.3	0
600	605822	446.4	0
600	605822	446.5	0
600	605822	446.6	0
600	605822	446.7	0
600	605822	446.8	0
600	605822	446.9	0
600	605822	447	0
600	605822	447.1	0
600	605822	447.2	0
600	605822	447.3	0
600	605822	447.4	0
600	605822	447.5	0
600	605822	447.6	0
600	605822	447.7	0
600	605822	447.8	0
600	605822	447.9	0
600	605822	448	0
600	605822	448.1	0
600	605822	448.2	0
600	605822	448.3	0
600	605822	448.4	0
600	605822	448.5	0
600	605822	448.6	0
600	605822	448.7	0
600	605822	448.8	0
600	605822	448.9	0
600	605822	449	0
600	605822	449.1	0
600	605822	449.2	0
600	605822	449.3	0
600	605822	449.4	0
600	605822	449.5	0
600	605822	449.6	0
600	605822	449.7	0
600	605822	449.8	0
600	605822	449.9	0
600	605822	450	0
600	605822	450.1	0
600	605822	450.2	0
600	605822	450.3	0
600	605822	450.4	0
600	605822	450.5	0
600	605822	450.6	0
600	605822	450.7	0
600	605822	450.8	0
600	605822	450.9	0
600	605822	451	0
600	605822	451.1	0
600	605822	451.2	0
600	605822	451.3	0
600	605822	451.4	0
600	605822	451.5	0
600	605822	451.6	0
600	605822	451.7	0
600	605822	451.8	0
600	605822	451.9	0
600	605822	452	0
600	605822	452.1	0
600	605822	452.2	0
600	605822	452.3	0
600	605822	452.4	0
600	605822	452.5	0
600	605822	452.6	0
600	605822	452.7	0
600	605822	452.8	0
600	605822	452.9	0
600	605822	453	0
600	605822	453.1	0
600	605822	453.2	0
600	605822	453.3	0
600	605822	453.4	0
600	605822	453.5	0
600	605822	453.6	0
600	605822	453.7	0
600	605822	453.8	0
600	605822	453.9	0
600	605822	454	0
600	605822	454.1	0
600	605822	454.2	0
600	605822	454.3	0
600	605822	454.4	0
600	605822	454.5	0
600	605822	454.6	0
600	605822	454.7	0
600	605822	454.8	0
600	605822	454.9	0
600	605822	455	0
600	605822	455.1	0
600	605822	455.2	0
600	605822	455.3	0
600	605822	455.4	0
600	605822	455.5	0
600	605822	455.6	0
600	605822	455.7	0
600	605822	455.8	0
600	605822	455.9	0
600	605822	456	0
600	605822	456.1	0
600	605822	456.2	0
600	605822	456.3	0
600	605822	456.4	0
600	605822	456.5	0
600	605822	456.6	0
600	605822	456.7	0
600	605822	456.8	0
600	605822	456.9	0
600	605822	457	0
600	605822	457.1	0
600	605822	457.2	0
600	605822	457.3	0
600	605822	457.4	0
600	605822	457.5	0
600	605822	457.6	0
600	605822	457.7	0
600	605822	457.8	0
600	605822	457.9	0
600	605822	458	0
600	605822	458.1	0
600	605822	458.2	0
600	605822	458.3	0
600	605822	458.4	0
600	605822	458.5	0
600	605822	458.6	0
600	605822	458.7	0
600	605822	458.8	0
600	605822	458.9	0
600	605822	459	0
600	605822	459.1	0
600	605822	459.2	0
600	605822	459.3	0
600	605822	459.4	0
600	605822	459.5	0
600	605822	459.6	0
600	605822	459.7	0
600	605822	459.8	0
600	605822	459.9	0
600	605822	460	0
600	605822	460.1	0
600	605822	460.2	0
600	605822	460.3	0
600	605822	460.4	0
600	605822	460.5	0
600	605822	460.6	0
600	605822	460.7	0
600	605822	460.8	0
600	605822	460.9	0
600	605822	461	0
600	605822	461.1	0
600	605822	461.2	0
600	605822	461.3	0
600	605822	461.4	0
600	605822	461.5	0
600	605822	461.6	0
600	605822	461.7	0
600	605822	461.8	0
600	605822	461.9	0
600	605822	462	0
600	605822	462.1	0
600	605822	462.2	0
600	605822	462.3	0
600	605822	462.4	0
600	605822	462.5	0
600	605822	462.6	0
600	605822	462.7	0
600	605822	462.8	0
600	605822	462.9	0
600	605822	463	0
600	605822	463.1	0
600	605822	463.2	0
600	605822	463.3	0
600	605822	463.4	0
600	605822	463.5	0
600	605822	463.6	0
600	605822	463.7	0
600	605822	463.8	0
600	605822	463.9	0
600	605822	464	0
600	605822	464.1	0
600	605822	464.2	0
600	605822	464.3	0
600	605822	464.4	0
600	605822	464.5	0
600	605822	464.6	0
600	605822	464.7	0
600	605822	464.8	0
600	605822	464.9	0
600	605822	465	0
600	605822	465.1	0
600	605822	465.2	0
600	605822	465.3	0
600	605822	465.4	0
600	605822	465.5	0
600	605822	465.6	0
600	605822	465.7	0
600	605822	465.8	0
600	605822	465.9	0
600	605822	466	0
600	605822	466.1	0
600	605822	466.2	0
600	605822	466.3	0
600	605822	466.4	0
600	605822	466.5	0
600	605822	466.6	0
600	605822	466.7	0
600	605822	466.8	0
600	605822	466.9	0
600	605822	467	0
600	605822	467.1	0
600	605822	467.2	0
600	605822	467.3	0
600	605822	467.4	0
600	605822	467.5	0
600	605822	467.6	0
600	605822	467.7	0
600	605822	467.8	0
600	605822	467.9	0
600	605822	468	0
600	605822	468.1	0
600	605822	468.2	0
600	605822	468.3	0
600	605822	468.4	0
600	605822	468.5	0
600	605822	468.6	0
600	605822	468.7	0
600	605822	468.8	0
600	605822	468.9	0
600	605822	469	0
600	605822	469.1	0
600	605822	469.2	0
600	605822	469.3	0
600	605822	469.4	0
600	605822	469.5	0
600	605822	469.6	0
600	605822	469.7	0
600	605822	469.8	0
600	605822	469.9	0
600	605822	470	0
600	605822	470.1	0
600	605822	470.2	0
600	605822	470.3	0
600	605822	470.4	0
600	605822	470.5	0
600	605822	470.6	0
600	605822	470.7	0
600	605822	470.8	0
600	605822	470.9	0
600	605822	471	0
600	605822	471.1	0
600	605822	471.2	0
600	605822	471.3	0
600	605822	471.4	0
600	605822	471.5	0
600	605822	471.6	0
600	605822	471.7	0
600	605822	471.8	0
600	605822	471.9	0
600	605822	472	0
600	605822	472.1	0
600	605822	472.2	0
600	605822	472.3	0
600	605822	472.4	0
600	605822	472.5	0
600	605822	472.6	0
600	605822	472.7	0
600	605822	472.8	0
600	605822	472.9	0
600	605822	473	0
600	605822	473.1	0
600	605822	473.2	0
600	605822	473.3	0
600	605822	473.4	0
600	605822	473.5	0
600	605822	473.6	0
600	605822	473.7	0
600	605822	473.8	0
600	605822	473.9	0
600	605822	474	0
600	605822	474.1	0
600	605822	474.2	0
600	605822	474.3	0
600	605822	474.4	0
600	605822	474.5	0
600	605822	474.6	0
600	605822	474.7	0
600	605822	474.8	0
600	605822	474.9	0
600	605822	475	0
600	605822	475.1	0
600	605822	475.2	0
600	605822	475.3	0
600	605822	475.4	0
600	605822	475.5	0
600	605822	475.6	0
600	605822	475.7	0
600	605822	475.8	0
600	605822	475.9	0
600	605822	476	0
600	605822	476.1	0
600	605822	476.2	0
600	605822	476.3	0
600	605822	476.4	0
600	605822	476.5	0
600	605822	476.6	0
600	605822	476.7	0
600	605822	476.8	0
600	605822	476.9	0
600	605822	477	0
600	605822	477.1	0
600	605822	477.2	0
600	605822	477.3	0
600	605822	477.4	0
600	605822	477.5	0
600	605822	477.6	0
600	605822	477.7	0
600	605822	477.8	0
600	605822	477.9	0
600	605822	478	0
600	605822	478.1	0
600	605822	478.2	0
600	605822	478.3	0
600	605822	478.4	0
600	605822	478.5	0
600	605822	478.6	0
600	605822	478.7	0
600	605822	478.8	0
600	605822	478.9	0
600	605822	479	0
600	605822	479.1	0
600	605822	479.2	0
600	605822	479.3	0
600	605822	479.4	0
600	605822	479.5	0
600	605822	479.6	0
600	605822	479.7	0
600	605822	479.8	0
600	605822	479.9	0
600	605822	480	0
600	605822	480.1	0
600	605822	480.2	0
600	605822	480.3	0
600	605822	480.4	0
600	605822	480.5	0
600	605822	480.6	0
600	605822	480.7	0
600	605822	480.8	0
600	605822	480.9	0
600	605822	481	0
600	605822	481.1	0
600	605822	481.2	0
600	605822	481.3	0
600	605822	481.4	0
600	605822	481.5	0
600	605822	481.6	0
600	605822	481.7	0
600	605822	481.8	0
600	605822	481.9	0
600	605822	482	0
600	605822	482.1	0
600	605822	482.2	0
600	605822	482.3	0
600	605822	482.4	0
600	605822	482.5	0
600	605822	482.6	0
600	605822	482.7	0
600	605822	482.8	0
600	605822	482.9	0
600	605822	483	0
600	605822	483.1	0
600	605822	483.2	0
600	605822	483.3	0
600	605822	483.4	0
600	605822	483.5	0
600	605822	483.6	0
600	605822	483.7	0
600	605822	483.8	0
600	605822	483.9	0
600	605822	484	0
600	605822	484.1	0
600	605822	484.2	0
600	605822	484.3	0
600	605822	484.4	0
600	605822	484.5	0
600	605822	484.6	0
600	605822	484.7	0
600	605822	484.8	0
600	605822	484.9	0
600	605822	485	0
600	605822	485.1	0
600	605822	485.2	0
600	605822	485.3	0
600	605822	485.4	0
600	605822	485.5	0
600	605822	485.6	0
600	605822	485.7	0
600	605822	485.8	0
600	605822	485.9	0
600	605822	486	0
600	605822	486.1	0
600	605822	486.2	0
600	605822	486.3	0
600	605822	486.4	0
600	605822	486.5	0
600	605822	486.6	0
600	605822	486.7	0
600	605822	486.8	0
600	605822	486.9	0
600	605822	487	0
600	605822	487.1	0
600	605822	487.2	0
600	605822	487.3	0
600	605822	487.4	0
600	605822	487.5	0
600	605822	487.6	0
600	605822	487.7	0
600	605822	487.8	0
600	605822	487.9	0
600	605822	488	0
600	605822	488.1	0
600	605822	488.2	0
600	605822	488.3	0
600	605822	488.4	0
600	605822	488.5	0
600	605822	488.6	0
600	605822	488.7	0
600	605822	488.8	0
600	605822	488.9	0
600	605822	489	0
600	605822	489.1	0
600	605822	489.2	0
600	605822	489.3	0
600	605822	489.4	0
600	605822	489.5	0
600	605822	489.6	0
600	605822	489.7	0
600	605822	489.8	0
600	605822	489.9	0
600	605822	490	0
600	605822	490.1	0
600	605822	490.2	0
600	605822	490.3	0
600	605822	490.4	0
600	605822	490.5	0
600	605822	490.6	0
600	605822	490.7	0
600	605822	490.8	0
600	605822	490.9	0
600	605822	491	0
600	605822	491.1	0
600	605822	491.2	0
600	605822	491.3	0
600	605822	491.4	0
600	605822	491.5	0
600	605822	491.6	0
600	605822	491.7	0
600	605822	491.8	0
600	605822	491.9	0
600	605822	492	0
600	605822	492.1	0
600	605822	492.2	0
600	605822	492.3	0
600	605822	492.4	0
600	605822	492.5	0
600	605822	492.6	0
600	605822	492.7	0
600	605822	492.8	0
600	605822	492.9	0
600	605822	493	0
600	605822	493.1	0
600	605822	493.2	0
600	605822	493.3	0
600	605822	493.4	0
600	605822	493.5	0
600	605822	493.6	0
600	605822	493.7	0
600	605822	493.8	0
600	605822	493.9	0
600	605822	494	0
600	605822	494.1	0
600	605822	494.2	0
600	605822	494.3	0
600	605822	494.4	0
600	605822	494.5	0
600	605822	494.6	0
600	605822	494.7	0
600	605822	494.8	0
600	605822	494.9	0
600	605822	495	0
600	605822	495.1	0
600	605822	495.2	0
600	605822	495.3	0
600	605822	495.4	0
600	605822	495.5	0
600	605822	495.6	0
600	605822	495.7	0
600	605822	495.8	0
600	605822	495.9	0
600	605822	496	0
600	605822	496.1	0
600	605822	496.2	0
600	605822	496.3	0
600	605822	496.4	0
600	605822	496.5	0
600	605822	496.6	0
600	605822	496.7	0
600	605822	496.8	0
600	605822	496.9	0
600	605822	497	0
600	605822	497.1	0
600	605822	497.2	0
600	605822	497.3	0
600	605822	497.4	0
600	605822	497.5	0
600	605822	497.6	0
600	605822	497.7	0
600	605822	497.8	0
600	605822	497.9	0
600	605822	498	0
600	605822	498.1	0
600	605822	498.2	0
600	605822	498.3	0
600	605822	498.4	0
600	605822	498.5	0
600	605822	498.6	0
600	605822	498.7	0
600	605822	498.8	0
600	605822	498.9	0
600	605822	499	0
600	605822	499.1	0
600	605822	499.2	0
600	605822	499.3	0
600	605822	499.4	0
600	605822	499.5	0
600	605822	499.6	0
600	605822	499.7	0
600	605822	499.8	0
600	605822	499.9	0
600	605822	500	0

