version 2
run Fanet-0-20220520-15:46:04-54062
attr configname Fanet
attr datetime 20220520-15:46:04
attr experiment Fanet
attr inifile omnetpp.ini
attr iterationvars ""
attr iterationvarsf ""
attr measurement ""
attr network Fanet
attr processid 54062
attr repetition 0
attr replication #0
attr resultdir results
attr runnumber 0
attr seedset 0
param *.host[0].numApps 1
param *.host[0].app[0].typename "\"UdpBasicApp\""
param *.host[0].app[0].startTime uniform(1s,5s)
param *.host[0].app[0].destAddresses "\"host[10]\""
param *.host[0].app[0].destPort 5000
param *.host[0].app[0].messageLength 1000B
param *.host[0].app[0].sendInterval exponential(1s)
param *.host[0].app[0].packetName "\"UDPdata\""
param *.host[10].numApps 1
param *.host[10].app[0].typename "\"UdpSink\""
param *.host[10].app[0].localPort 5000
param **.wlan[*].bitrate 24Mbps
param *.configurator.addStaticRoutes false
param **.netmaskRoutes "\"\""
param **.arp.typename "\"GlobalArp\""
param *.host*.wlan[0].typename "\"AckingWirelessInterface\""
param *.host*.wlan[0].radio.transmitter.communicationRange 400m
param *.host*.wlan[0].radio.displayCommunicationRange true
param *.visualizer.osgVisualizer.typename "\"IntegratedOsgVisualizer\""
param *.visualizer.osgVisualizer.sceneVisualizer.clearColor "\"skyblue\""
param *.visualizer.osgVisualizer.sceneVisualizer.sceneImage "\"showcases/desert\""
param *.visualizer.osgVisualizer.sceneVisualizer.sceneImageSize 5000m
param *.visualizer.osgVisualizer.sceneVisualizer.axisLength 1000m
param *.visualizer.osgVisualizer.sceneVisualizer.sceneMinX -2000m
param *.visualizer.osgVisualizer.sceneVisualizer.sceneMinY -2000m
param *.visualizer.osgVisualizer.sceneVisualizer.sceneMinZ 0m
param *.visualizer.osgVisualizer.sceneVisualizer.sceneMaxX 3000m
param *.visualizer.osgVisualizer.sceneVisualizer.sceneMaxY 3000m
param *.visualizer.osgVisualizer.sceneVisualizer.sceneMaxZ 1000m
param *.visualizer.osgVisualizer.networkNodeVisualizer.displayModuleName false
param *.visualizer.*.mobilityVisualizer.displayMobility true
param *.visualizer.*.mobilityVisualizer.displayPositions true
param *.visualizer.*.mobilityVisualizer.displayOrientations true
param *.visualizer.*.mobilityVisualizer.displayVelocities true
param *.visualizer.*.mobilityVisualizer.displayMovementTrails true
param *.visualizer.*.mobilityVisualizer.animationSpeed 1
param *.visualizer.*.packetDropVisualizer.displayPacketDrops false
param *.visualizer.*.packetDropVisualizer.labelFormat "\"%n/reason: %r\""
param *.visualizer.*.packetDropVisualizer.fadeOutTime 10s
param **.constraintAreaMinX 0m
param **.constraintAreaMinY 0m
param **.constraintAreaMinZ 0m
param **.constraintAreaMaxX 2500m
param **.constraintAreaMaxY 2000m
param **.constraintAreaMaxZ 200m
param *.visualizer.*.mediumVisualizer.signalPropagationAnimationSpeed 500/3e8
param *.visualizer.*.mediumVisualizer.signalTransmissionAnimationSpeed 50000/3e8
param *.visualizer.*.mediumVisualizer.displaySignals false
param *.visualizer.*.mediumVisualizer.displayTransmissions false
param *.visualizer.*.mediumVisualizer.displayReceptions false
param *.visualizer.*.mediumVisualizer.transmissionPlacementPriority 10
param *.visualizer.*.mediumVisualizer.receptionPlacementPriority 10
param *.visualizer.*.mediumVisualizer.displaySignals false
param *.visualizer.*.mediumVisualizer.signalFadingDistance 50m
param *.visualizer.*.mediumVisualizer.signalRingSize 50m
param *.visualizer.osgVisualizer.mediumVisualizer.signalShape "\"both\""
param *.host[*].osgModel "\"3d/drone.ive.100.scale.0,0,90.rot\""
param *.host[*].mobility.typename "\"MassMobility\""
param *.host[*].mobility.changeInterval 1s
param *.host[*].mobility.initialMovementHeading "uniform(0deg, 360deg)"
param *.host[*].mobility.initialMovementElevation "uniform(-90deg, 90deg)"
param *.host[*].mobility.angleDelta uniform(-10deg,10deg)
param *.host[*].mobility.rotationAxisAngle uniform(-10deg,10deg)
param *.host[*].mobility.speed uniform(10mps,20mps)
param *.host[*].mobility.faceForward false

vector 0 Fanet.host[0].wlan[0].radio radioMode:vector ETV
attr interpolationmode sample-hold
attr source radioModeChanged
attr title "Radio mode, vector"
vector 1 Fanet.host[1].wlan[0].radio radioMode:vector ETV
attr interpolationmode sample-hold
attr source radioModeChanged
attr title "Radio mode, vector"
vector 2 Fanet.host[2].wlan[0].radio radioMode:vector ETV
attr interpolationmode sample-hold
attr source radioModeChanged
attr title "Radio mode, vector"
vector 3 Fanet.host[3].wlan[0].radio radioMode:vector ETV
attr interpolationmode sample-hold
attr source radioModeChanged
attr title "Radio mode, vector"
vector 4 Fanet.host[4].wlan[0].radio radioMode:vector ETV
attr interpolationmode sample-hold
attr source radioModeChanged
attr title "Radio mode, vector"
vector 5 Fanet.host[5].wlan[0].radio radioMode:vector ETV
attr interpolationmode sample-hold
attr source radioModeChanged
attr title "Radio mode, vector"
vector 6 Fanet.host[6].wlan[0].radio radioMode:vector ETV
attr interpolationmode sample-hold
attr source radioModeChanged
attr title "Radio mode, vector"
vector 7 Fanet.host[7].wlan[0].radio radioMode:vector ETV
attr interpolationmode sample-hold
attr source radioModeChanged
attr title "Radio mode, vector"
vector 8 Fanet.host[8].wlan[0].radio radioMode:vector ETV
attr interpolationmode sample-hold
attr source radioModeChanged
attr title "Radio mode, vector"
vector 9 Fanet.host[9].wlan[0].radio radioMode:vector ETV
attr interpolationmode sample-hold
attr source radioModeChanged
attr title "Radio mode, vector"
vector 10 Fanet.host[10].wlan[0].radio radioMode:vector ETV
attr interpolationmode sample-hold
attr source radioModeChanged
attr title "Radio mode, vector"
vector 11 Fanet.host[11].wlan[0].radio radioMode:vector ETV
attr interpolationmode sample-hold
attr source radioModeChanged
attr title "Radio mode, vector"
vector 12 Fanet.host[12].wlan[0].radio radioMode:vector ETV
attr interpolationmode sample-hold
attr source radioModeChanged
attr title "Radio mode, vector"
vector 13 Fanet.host[13].wlan[0].radio radioMode:vector ETV
attr interpolationmode sample-hold
attr source radioModeChanged
attr title "Radio mode, vector"
vector 14 Fanet.host[14].wlan[0].radio radioMode:vector ETV
attr interpolationmode sample-hold
attr source radioModeChanged
attr title "Radio mode, vector"
vector 15 Fanet.host[15].wlan[0].radio radioMode:vector ETV
attr interpolationmode sample-hold
attr source radioModeChanged
attr title "Radio mode, vector"
vector 16 Fanet.host[16].wlan[0].radio radioMode:vector ETV
attr interpolationmode sample-hold
attr source radioModeChanged
attr title "Radio mode, vector"
vector 17 Fanet.host[17].wlan[0].radio radioMode:vector ETV
attr interpolationmode sample-hold
attr source radioModeChanged
attr title "Radio mode, vector"
vector 18 Fanet.host[18].wlan[0].radio radioMode:vector ETV
attr interpolationmode sample-hold
attr source radioModeChanged
attr title "Radio mode, vector"
vector 19 Fanet.host[19].wlan[0].radio radioMode:vector ETV
attr interpolationmode sample-hold
attr source radioModeChanged
attr title "Radio mode, vector"
vector 20 Fanet.host[0].wlan[0].radio receptionState:vector ETV
attr interpolationmode sample-hold
attr source receptionStateChanged
attr title "Radio reception state, vector"
vector 21 Fanet.host[0].wlan[0].radio transmissionState:vector ETV
attr interpolationmode sample-hold
attr source transmissionStateChanged
attr title "Radio transmission state, vector"
vector 22 Fanet.host[1].wlan[0].radio receptionState:vector ETV
attr interpolationmode sample-hold
attr source receptionStateChanged
attr title "Radio reception state, vector"
vector 23 Fanet.host[1].wlan[0].radio transmissionState:vector ETV
attr interpolationmode sample-hold
attr source transmissionStateChanged
attr title "Radio transmission state, vector"
vector 24 Fanet.host[2].wlan[0].radio receptionState:vector ETV
attr interpolationmode sample-hold
attr source receptionStateChanged
attr title "Radio reception state, vector"
vector 25 Fanet.host[2].wlan[0].radio transmissionState:vector ETV
attr interpolationmode sample-hold
attr source transmissionStateChanged
attr title "Radio transmission state, vector"
vector 26 Fanet.host[3].wlan[0].radio receptionState:vector ETV
attr interpolationmode sample-hold
attr source receptionStateChanged
attr title "Radio reception state, vector"
vector 27 Fanet.host[3].wlan[0].radio transmissionState:vector ETV
attr interpolationmode sample-hold
attr source transmissionStateChanged
attr title "Radio transmission state, vector"
vector 28 Fanet.host[4].wlan[0].radio receptionState:vector ETV
attr interpolationmode sample-hold
attr source receptionStateChanged
attr title "Radio reception state, vector"
vector 29 Fanet.host[4].wlan[0].radio transmissionState:vector ETV
attr interpolationmode sample-hold
attr source transmissionStateChanged
attr title "Radio transmission state, vector"
vector 30 Fanet.host[5].wlan[0].radio receptionState:vector ETV
attr interpolationmode sample-hold
attr source receptionStateChanged
attr title "Radio reception state, vector"
vector 31 Fanet.host[5].wlan[0].radio transmissionState:vector ETV
attr interpolationmode sample-hold
attr source transmissionStateChanged
attr title "Radio transmission state, vector"
vector 32 Fanet.host[6].wlan[0].radio receptionState:vector ETV
attr interpolationmode sample-hold
attr source receptionStateChanged
attr title "Radio reception state, vector"
vector 33 Fanet.host[6].wlan[0].radio transmissionState:vector ETV
attr interpolationmode sample-hold
attr source transmissionStateChanged
attr title "Radio transmission state, vector"
vector 34 Fanet.host[7].wlan[0].radio receptionState:vector ETV
attr interpolationmode sample-hold
attr source receptionStateChanged
attr title "Radio reception state, vector"
vector 35 Fanet.host[7].wlan[0].radio transmissionState:vector ETV
attr interpolationmode sample-hold
attr source transmissionStateChanged
attr title "Radio transmission state, vector"
vector 36 Fanet.host[8].wlan[0].radio receptionState:vector ETV
attr interpolationmode sample-hold
attr source receptionStateChanged
attr title "Radio reception state, vector"
vector 37 Fanet.host[8].wlan[0].radio transmissionState:vector ETV
attr interpolationmode sample-hold
attr source transmissionStateChanged
attr title "Radio transmission state, vector"
vector 38 Fanet.host[9].wlan[0].radio receptionState:vector ETV
attr interpolationmode sample-hold
attr source receptionStateChanged
attr title "Radio reception state, vector"
vector 39 Fanet.host[9].wlan[0].radio transmissionState:vector ETV
attr interpolationmode sample-hold
attr source transmissionStateChanged
attr title "Radio transmission state, vector"
vector 40 Fanet.host[10].wlan[0].radio receptionState:vector ETV
attr interpolationmode sample-hold
attr source receptionStateChanged
attr title "Radio reception state, vector"
vector 41 Fanet.host[10].wlan[0].radio transmissionState:vector ETV
attr interpolationmode sample-hold
attr source transmissionStateChanged
attr title "Radio transmission state, vector"
vector 42 Fanet.host[11].wlan[0].radio receptionState:vector ETV
attr interpolationmode sample-hold
attr source receptionStateChanged
attr title "Radio reception state, vector"
vector 43 Fanet.host[11].wlan[0].radio transmissionState:vector ETV
attr interpolationmode sample-hold
attr source transmissionStateChanged
attr title "Radio transmission state, vector"
vector 44 Fanet.host[12].wlan[0].radio receptionState:vector ETV
attr interpolationmode sample-hold
attr source receptionStateChanged
attr title "Radio reception state, vector"
vector 45 Fanet.host[12].wlan[0].radio transmissionState:vector ETV
attr interpolationmode sample-hold
attr source transmissionStateChanged
attr title "Radio transmission state, vector"
vector 46 Fanet.host[13].wlan[0].radio receptionState:vector ETV
attr interpolationmode sample-hold
attr source receptionStateChanged
attr title "Radio reception state, vector"
vector 47 Fanet.host[13].wlan[0].radio transmissionState:vector ETV
attr interpolationmode sample-hold
attr source transmissionStateChanged
attr title "Radio transmission state, vector"
vector 48 Fanet.host[14].wlan[0].radio receptionState:vector ETV
attr interpolationmode sample-hold
attr source receptionStateChanged
attr title "Radio reception state, vector"
vector 49 Fanet.host[14].wlan[0].radio transmissionState:vector ETV
attr interpolationmode sample-hold
attr source transmissionStateChanged
attr title "Radio transmission state, vector"
vector 50 Fanet.host[15].wlan[0].radio receptionState:vector ETV
attr interpolationmode sample-hold
attr source receptionStateChanged
attr title "Radio reception state, vector"
vector 51 Fanet.host[15].wlan[0].radio transmissionState:vector ETV
attr interpolationmode sample-hold
attr source transmissionStateChanged
attr title "Radio transmission state, vector"
vector 52 Fanet.host[16].wlan[0].radio receptionState:vector ETV
attr interpolationmode sample-hold
attr source receptionStateChanged
attr title "Radio reception state, vector"
vector 53 Fanet.host[16].wlan[0].radio transmissionState:vector ETV
attr interpolationmode sample-hold
attr source transmissionStateChanged
attr title "Radio transmission state, vector"
vector 54 Fanet.host[17].wlan[0].radio receptionState:vector ETV
attr interpolationmode sample-hold
attr source receptionStateChanged
attr title "Radio reception state, vector"
vector 55 Fanet.host[17].wlan[0].radio transmissionState:vector ETV
attr interpolationmode sample-hold
attr source transmissionStateChanged
attr title "Radio transmission state, vector"
vector 56 Fanet.host[18].wlan[0].radio receptionState:vector ETV
attr interpolationmode sample-hold
attr source receptionStateChanged
attr title "Radio reception state, vector"
vector 57 Fanet.host[18].wlan[0].radio transmissionState:vector ETV
attr interpolationmode sample-hold
attr source transmissionStateChanged
attr title "Radio transmission state, vector"
vector 58 Fanet.host[19].wlan[0].radio receptionState:vector ETV
attr interpolationmode sample-hold
attr source receptionStateChanged
attr title "Radio reception state, vector"
vector 59 Fanet.host[19].wlan[0].radio transmissionState:vector ETV
attr interpolationmode sample-hold
attr source transmissionStateChanged
attr title "Radio transmission state, vector"
vector 60 Fanet.host[0].app[0] packetSent:vector(packetBytes) ETV
attr interpolationmode none
attr source packetSent
attr title "packets sent, vector(packetBytes)"
vector 61 Fanet.host[0].udp packetSent:vector(packetBytes) ETV
attr interpolationmode none
attr source packetSent
attr title "packets sent, vector(packetBytes)"
vector 62 Fanet.host[14].wlan[0].mac rcvdPkFromHl:vector(packetBytes) ETV
attr interpolationmode none
attr source packetReceivedFromUpper
attr title "packets received from higher layer, vector(packetBytes)"
vector 63 Fanet.host[14].wlan[0].mac.queue packetPushed:vector(packetBytes) ETV
attr interpolationmode none
attr title "packet pushed, vector(packetBytes)"
vector 64 Fanet.host[14].wlan[0].mac.queue queueLength:vector ETV
attr interpolationmode sample-hold
attr source "count(packetPushed) - count(packetPopped) - count(packetRemoved) - count(packetDropped)"
attr title "queue length, vector"
vector 65 Fanet.host[14].wlan[0].mac.queue packetPopped:vector(packetBytes) ETV
attr interpolationmode none
attr title "packet popped, vector(packetBytes)"
vector 66 Fanet.host[14].wlan[0].mac.queue queueingTime:vector ETV
attr interpolationmode none
attr source queueingTime(packetPopped)
attr title "queueing times, vector"
attr unit s
vector 67 Fanet.host[14].wlan[0].mac sentDownPk:vector(packetBytes) ETV
attr interpolationmode none
attr source packetSentToLower
attr title "packets sent to lower layer, vector(packetBytes)"
vector 68 Fanet.host[16].wlan[0].mac rcvdPkFromHl:vector(packetBytes) ETV
attr interpolationmode none
attr source packetReceivedFromUpper
attr title "packets received from higher layer, vector(packetBytes)"
vector 69 Fanet.host[16].wlan[0].mac.queue packetPushed:vector(packetBytes) ETV
attr interpolationmode none
attr title "packet pushed, vector(packetBytes)"
vector 70 Fanet.host[16].wlan[0].mac.queue queueLength:vector ETV
attr interpolationmode sample-hold
attr source "count(packetPushed) - count(packetPopped) - count(packetRemoved) - count(packetDropped)"
attr title "queue length, vector"
vector 71 Fanet.host[16].wlan[0].mac.queue packetPopped:vector(packetBytes) ETV
attr interpolationmode none
attr title "packet popped, vector(packetBytes)"
vector 72 Fanet.host[16].wlan[0].mac.queue queueingTime:vector ETV
attr interpolationmode none
attr source queueingTime(packetPopped)
attr title "queueing times, vector"
attr unit s
vector 73 Fanet.host[16].wlan[0].mac sentDownPk:vector(packetBytes) ETV
attr interpolationmode none
attr source packetSentToLower
attr title "packets sent to lower layer, vector(packetBytes)"
vector 74 Fanet.host[12].wlan[0].mac rcvdPkFromHl:vector(packetBytes) ETV
attr interpolationmode none
attr source packetReceivedFromUpper
attr title "packets received from higher layer, vector(packetBytes)"
vector 75 Fanet.host[12].wlan[0].mac.queue packetPushed:vector(packetBytes) ETV
attr interpolationmode none
attr title "packet pushed, vector(packetBytes)"
vector 76 Fanet.host[12].wlan[0].mac.queue queueLength:vector ETV
attr interpolationmode sample-hold
attr source "count(packetPushed) - count(packetPopped) - count(packetRemoved) - count(packetDropped)"
attr title "queue length, vector"
vector 77 Fanet.host[12].wlan[0].mac.queue packetPopped:vector(packetBytes) ETV
attr interpolationmode none
attr title "packet popped, vector(packetBytes)"
vector 78 Fanet.host[12].wlan[0].mac.queue queueingTime:vector ETV
attr interpolationmode none
attr source queueingTime(packetPopped)
attr title "queueing times, vector"
attr unit s
vector 79 Fanet.host[12].wlan[0].mac sentDownPk:vector(packetBytes) ETV
attr interpolationmode none
attr source packetSentToLower
attr title "packets sent to lower layer, vector(packetBytes)"
vector 80 Fanet.host[11].wlan[0].mac rcvdPkFromLl:vector(packetBytes) ETV
attr interpolationmode none
attr source packetReceivedFromLower
attr title "packets received from lower layer, vector(packetBytes)"
vector 81 Fanet.host[11].wlan[0].mac passedUpPk:vector(packetBytes) ETV
attr interpolationmode none
attr source packetSentToUpper
attr title "packets passed to higher layer, vector(packetBytes)"
vector 82 Fanet.host[17].wlan[0].mac rcvdPkFromHl:vector(packetBytes) ETV
attr interpolationmode none
attr source packetReceivedFromUpper
attr title "packets received from higher layer, vector(packetBytes)"
vector 83 Fanet.host[17].wlan[0].mac.queue packetPushed:vector(packetBytes) ETV
attr interpolationmode none
attr title "packet pushed, vector(packetBytes)"
vector 84 Fanet.host[17].wlan[0].mac.queue queueLength:vector ETV
attr interpolationmode sample-hold
attr source "count(packetPushed) - count(packetPopped) - count(packetRemoved) - count(packetDropped)"
attr title "queue length, vector"
vector 85 Fanet.host[17].wlan[0].mac.queue packetPopped:vector(packetBytes) ETV
attr interpolationmode none
attr title "packet popped, vector(packetBytes)"
vector 86 Fanet.host[17].wlan[0].mac.queue queueingTime:vector ETV
attr interpolationmode none
attr source queueingTime(packetPopped)
attr title "queueing times, vector"
attr unit s
vector 87 Fanet.host[17].wlan[0].mac sentDownPk:vector(packetBytes) ETV
attr interpolationmode none
attr source packetSentToLower
attr title "packets sent to lower layer, vector(packetBytes)"
vector 88 Fanet.host[5].wlan[0].mac rcvdPkFromLl:vector(packetBytes) ETV
attr interpolationmode none
attr source packetReceivedFromLower
attr title "packets received from lower layer, vector(packetBytes)"
vector 89 Fanet.host[5].wlan[0].mac passedUpPk:vector(packetBytes) ETV
attr interpolationmode none
attr source packetSentToUpper
attr title "packets passed to higher layer, vector(packetBytes)"
vector 90 Fanet.host[13].wlan[0].mac rcvdPkFromLl:vector(packetBytes) ETV
attr interpolationmode none
attr source packetReceivedFromLower
attr title "packets received from lower layer, vector(packetBytes)"
vector 91 Fanet.host[13].wlan[0].mac passedUpPk:vector(packetBytes) ETV
attr interpolationmode none
attr source packetSentToUpper
attr title "packets passed to higher layer, vector(packetBytes)"
vector 92 Fanet.host[10].wlan[0].mac rcvdPkFromHl:vector(packetBytes) ETV
attr interpolationmode none
attr source packetReceivedFromUpper
attr title "packets received from higher layer, vector(packetBytes)"
vector 93 Fanet.host[10].wlan[0].mac.queue packetPushed:vector(packetBytes) ETV
attr interpolationmode none
attr title "packet pushed, vector(packetBytes)"
vector 94 Fanet.host[10].wlan[0].mac.queue queueLength:vector ETV
attr interpolationmode sample-hold
attr source "count(packetPushed) - count(packetPopped) - count(packetRemoved) - count(packetDropped)"
attr title "queue length, vector"
vector 95 Fanet.host[10].wlan[0].mac.queue packetPopped:vector(packetBytes) ETV
attr interpolationmode none
attr title "packet popped, vector(packetBytes)"
vector 96 Fanet.host[10].wlan[0].mac.queue queueingTime:vector ETV
attr interpolationmode none
attr source queueingTime(packetPopped)
attr title "queueing times, vector"
attr unit s
vector 97 Fanet.host[10].wlan[0].mac sentDownPk:vector(packetBytes) ETV
attr interpolationmode none
attr source packetSentToLower
attr title "packets sent to lower layer, vector(packetBytes)"
vector 98 Fanet.host[18].wlan[0].mac rcvdPkFromLl:vector(packetBytes) ETV
attr interpolationmode none
attr source packetReceivedFromLower
attr title "packets received from lower layer, vector(packetBytes)"
vector 99 Fanet.host[18].wlan[0].mac passedUpPk:vector(packetBytes) ETV
attr interpolationmode none
attr source packetSentToUpper
attr title "packets passed to higher layer, vector(packetBytes)"
vector 100 Fanet.host[7].wlan[0].mac rcvdPkFromHl:vector(packetBytes) ETV
attr interpolationmode none
attr source packetReceivedFromUpper
attr title "packets received from higher layer, vector(packetBytes)"
vector 101 Fanet.host[7].wlan[0].mac.queue packetPushed:vector(packetBytes) ETV
attr interpolationmode none
attr title "packet pushed, vector(packetBytes)"
vector 102 Fanet.host[7].wlan[0].mac.queue queueLength:vector ETV
attr interpolationmode sample-hold
attr source "count(packetPushed) - count(packetPopped) - count(packetRemoved) - count(packetDropped)"
attr title "queue length, vector"
vector 103 Fanet.host[7].wlan[0].mac.queue packetPopped:vector(packetBytes) ETV
attr interpolationmode none
attr title "packet popped, vector(packetBytes)"
vector 104 Fanet.host[7].wlan[0].mac.queue queueingTime:vector ETV
attr interpolationmode none
attr source queueingTime(packetPopped)
attr title "queueing times, vector"
attr unit s
vector 105 Fanet.host[7].wlan[0].mac sentDownPk:vector(packetBytes) ETV
attr interpolationmode none
attr source packetSentToLower
attr title "packets sent to lower layer, vector(packetBytes)"
vector 106 Fanet.host[11].wlan[0].mac rcvdPkFromHl:vector(packetBytes) ETV
attr interpolationmode none
attr source packetReceivedFromUpper
attr title "packets received from higher layer, vector(packetBytes)"
vector 107 Fanet.host[11].wlan[0].mac.queue packetPushed:vector(packetBytes) ETV
attr interpolationmode none
attr title "packet pushed, vector(packetBytes)"
vector 108 Fanet.host[11].wlan[0].mac.queue queueLength:vector ETV
attr interpolationmode sample-hold
attr source "count(packetPushed) - count(packetPopped) - count(packetRemoved) - count(packetDropped)"
attr title "queue length, vector"
vector 109 Fanet.host[11].wlan[0].mac.queue packetPopped:vector(packetBytes) ETV
attr interpolationmode none
attr title "packet popped, vector(packetBytes)"
vector 110 Fanet.host[11].wlan[0].mac.queue queueingTime:vector ETV
attr interpolationmode none
attr source queueingTime(packetPopped)
attr title "queueing times, vector"
attr unit s
vector 111 Fanet.host[11].wlan[0].mac sentDownPk:vector(packetBytes) ETV
attr interpolationmode none
attr source packetSentToLower
attr title "packets sent to lower layer, vector(packetBytes)"
vector 112 Fanet.host[12].wlan[0].mac rcvdPkFromLl:vector(packetBytes) ETV
attr interpolationmode none
attr source packetReceivedFromLower
attr title "packets received from lower layer, vector(packetBytes)"
vector 113 Fanet.host[12].wlan[0].mac passedUpPk:vector(packetBytes) ETV
attr interpolationmode none
attr source packetSentToUpper
attr title "packets passed to higher layer, vector(packetBytes)"
vector 114 Fanet.host[15].wlan[0].mac rcvdPkFromLl:vector(packetBytes) ETV
attr interpolationmode none
attr source packetReceivedFromLower
attr title "packets received from lower layer, vector(packetBytes)"
vector 115 Fanet.host[15].wlan[0].mac passedUpPk:vector(packetBytes) ETV
attr interpolationmode none
attr source packetSentToUpper
attr title "packets passed to higher layer, vector(packetBytes)"
vector 116 Fanet.host[18].wlan[0].mac rcvdPkFromHl:vector(packetBytes) ETV
attr interpolationmode none
attr source packetReceivedFromUpper
attr title "packets received from higher layer, vector(packetBytes)"
vector 117 Fanet.host[18].wlan[0].mac.queue packetPushed:vector(packetBytes) ETV
attr interpolationmode none
attr title "packet pushed, vector(packetBytes)"
vector 118 Fanet.host[18].wlan[0].mac.queue queueLength:vector ETV
attr interpolationmode sample-hold
attr source "count(packetPushed) - count(packetPopped) - count(packetRemoved) - count(packetDropped)"
attr title "queue length, vector"
vector 119 Fanet.host[18].wlan[0].mac.queue packetPopped:vector(packetBytes) ETV
attr interpolationmode none
attr title "packet popped, vector(packetBytes)"
vector 120 Fanet.host[18].wlan[0].mac.queue queueingTime:vector ETV
attr interpolationmode none
attr source queueingTime(packetPopped)
attr title "queueing times, vector"
attr unit s
vector 121 Fanet.host[18].wlan[0].mac sentDownPk:vector(packetBytes) ETV
attr interpolationmode none
attr source packetSentToLower
attr title "packets sent to lower layer, vector(packetBytes)"
vector 122 Fanet.host[19].wlan[0].mac rcvdPkFromLl:vector(packetBytes) ETV
attr interpolationmode none
attr source packetReceivedFromLower
attr title "packets received from lower layer, vector(packetBytes)"
vector 123 Fanet.host[19].wlan[0].mac passedUpPk:vector(packetBytes) ETV
attr interpolationmode none
attr source packetSentToUpper
attr title "packets passed to higher layer, vector(packetBytes)"
vector 124 Fanet.host[10].wlan[0].mac rcvdPkFromLl:vector(packetBytes) ETV
attr interpolationmode none
attr source packetReceivedFromLower
attr title "packets received from lower layer, vector(packetBytes)"
vector 125 Fanet.host[10].wlan[0].mac passedUpPk:vector(packetBytes) ETV
attr interpolationmode none
attr source packetSentToUpper
attr title "packets passed to higher layer, vector(packetBytes)"
vector 126 Fanet.host[5].wlan[0].mac rcvdPkFromHl:vector(packetBytes) ETV
attr interpolationmode none
attr source packetReceivedFromUpper
attr title "packets received from higher layer, vector(packetBytes)"
vector 127 Fanet.host[5].wlan[0].mac.queue packetPushed:vector(packetBytes) ETV
attr interpolationmode none
attr title "packet pushed, vector(packetBytes)"
vector 128 Fanet.host[5].wlan[0].mac.queue queueLength:vector ETV
attr interpolationmode sample-hold
attr source "count(packetPushed) - count(packetPopped) - count(packetRemoved) - count(packetDropped)"
attr title "queue length, vector"
vector 129 Fanet.host[5].wlan[0].mac.queue packetPopped:vector(packetBytes) ETV
attr interpolationmode none
attr title "packet popped, vector(packetBytes)"
vector 130 Fanet.host[5].wlan[0].mac.queue queueingTime:vector ETV
attr interpolationmode none
attr source queueingTime(packetPopped)
attr title "queueing times, vector"
attr unit s
vector 131 Fanet.host[5].wlan[0].mac sentDownPk:vector(packetBytes) ETV
attr interpolationmode none
attr source packetSentToLower
attr title "packets sent to lower layer, vector(packetBytes)"
vector 132 Fanet.host[17].wlan[0].mac rcvdPkFromLl:vector(packetBytes) ETV
attr interpolationmode none
attr source packetReceivedFromLower
attr title "packets received from lower layer, vector(packetBytes)"
vector 133 Fanet.host[17].wlan[0].mac passedUpPk:vector(packetBytes) ETV
attr interpolationmode none
attr source packetSentToUpper
attr title "packets passed to higher layer, vector(packetBytes)"
vector 134 Fanet.host[0].wlan[0].mac rcvdPkFromHl:vector(packetBytes) ETV
attr interpolationmode none
attr source packetReceivedFromUpper
attr title "packets received from higher layer, vector(packetBytes)"
vector 135 Fanet.host[0].wlan[0].mac.queue packetPushed:vector(packetBytes) ETV
attr interpolationmode none
attr title "packet pushed, vector(packetBytes)"
vector 136 Fanet.host[0].wlan[0].mac.queue queueLength:vector ETV
attr interpolationmode sample-hold
attr source "count(packetPushed) - count(packetPopped) - count(packetRemoved) - count(packetDropped)"
attr title "queue length, vector"
vector 137 Fanet.host[0].wlan[0].mac.queue packetPopped:vector(packetBytes) ETV
attr interpolationmode none
attr title "packet popped, vector(packetBytes)"
vector 138 Fanet.host[0].wlan[0].mac.queue queueingTime:vector ETV
attr interpolationmode none
attr source queueingTime(packetPopped)
attr title "queueing times, vector"
attr unit s
vector 139 Fanet.host[0].wlan[0].mac sentDownPk:vector(packetBytes) ETV
attr interpolationmode none
attr source packetSentToLower
attr title "packets sent to lower layer, vector(packetBytes)"
vector 140 Fanet.host[3].wlan[0].mac rcvdPkFromHl:vector(packetBytes) ETV
attr interpolationmode none
attr source packetReceivedFromUpper
attr title "packets received from higher layer, vector(packetBytes)"
vector 141 Fanet.host[3].wlan[0].mac.queue packetPushed:vector(packetBytes) ETV
attr interpolationmode none
attr title "packet pushed, vector(packetBytes)"
vector 142 Fanet.host[3].wlan[0].mac.queue queueLength:vector ETV
attr interpolationmode sample-hold
attr source "count(packetPushed) - count(packetPopped) - count(packetRemoved) - count(packetDropped)"
attr title "queue length, vector"
vector 143 Fanet.host[3].wlan[0].mac.queue packetPopped:vector(packetBytes) ETV
attr interpolationmode none
attr title "packet popped, vector(packetBytes)"
vector 144 Fanet.host[3].wlan[0].mac.queue queueingTime:vector ETV
attr interpolationmode none
attr source queueingTime(packetPopped)
attr title "queueing times, vector"
attr unit s
vector 145 Fanet.host[3].wlan[0].mac sentDownPk:vector(packetBytes) ETV
attr interpolationmode none
attr source packetSentToLower
attr title "packets sent to lower layer, vector(packetBytes)"
vector 146 Fanet.host[8].wlan[0].mac rcvdPkFromHl:vector(packetBytes) ETV
attr interpolationmode none
attr source packetReceivedFromUpper
attr title "packets received from higher layer, vector(packetBytes)"
vector 147 Fanet.host[8].wlan[0].mac.queue packetPushed:vector(packetBytes) ETV
attr interpolationmode none
attr title "packet pushed, vector(packetBytes)"
vector 148 Fanet.host[8].wlan[0].mac.queue queueLength:vector ETV
attr interpolationmode sample-hold
attr source "count(packetPushed) - count(packetPopped) - count(packetRemoved) - count(packetDropped)"
attr title "queue length, vector"
vector 149 Fanet.host[8].wlan[0].mac.queue packetPopped:vector(packetBytes) ETV
attr interpolationmode none
attr title "packet popped, vector(packetBytes)"
vector 150 Fanet.host[8].wlan[0].mac.queue queueingTime:vector ETV
attr interpolationmode none
attr source queueingTime(packetPopped)
attr title "queueing times, vector"
attr unit s
vector 151 Fanet.host[8].wlan[0].mac sentDownPk:vector(packetBytes) ETV
attr interpolationmode none
attr source packetSentToLower
attr title "packets sent to lower layer, vector(packetBytes)"
vector 152 Fanet.host[9].wlan[0].mac rcvdPkFromLl:vector(packetBytes) ETV
attr interpolationmode none
attr source packetReceivedFromLower
attr title "packets received from lower layer, vector(packetBytes)"
vector 153 Fanet.host[9].wlan[0].mac passedUpPk:vector(packetBytes) ETV
attr interpolationmode none
attr source packetSentToUpper
attr title "packets passed to higher layer, vector(packetBytes)"
vector 154 Fanet.host[14].wlan[0].mac rcvdPkFromLl:vector(packetBytes) ETV
attr interpolationmode none
attr source packetReceivedFromLower
attr title "packets received from lower layer, vector(packetBytes)"
vector 155 Fanet.host[14].wlan[0].mac passedUpPk:vector(packetBytes) ETV
attr interpolationmode none
attr source packetSentToUpper
attr title "packets passed to higher layer, vector(packetBytes)"
vector 156 Fanet.host[9].wlan[0].mac rcvdPkFromHl:vector(packetBytes) ETV
attr interpolationmode none
attr source packetReceivedFromUpper
attr title "packets received from higher layer, vector(packetBytes)"
vector 157 Fanet.host[9].wlan[0].mac.queue packetPushed:vector(packetBytes) ETV
attr interpolationmode none
attr title "packet pushed, vector(packetBytes)"
vector 158 Fanet.host[9].wlan[0].mac.queue queueLength:vector ETV
attr interpolationmode sample-hold
attr source "count(packetPushed) - count(packetPopped) - count(packetRemoved) - count(packetDropped)"
attr title "queue length, vector"
vector 159 Fanet.host[9].wlan[0].mac.queue packetPopped:vector(packetBytes) ETV
attr interpolationmode none
attr title "packet popped, vector(packetBytes)"
vector 160 Fanet.host[9].wlan[0].mac.queue queueingTime:vector ETV
attr interpolationmode none
attr source queueingTime(packetPopped)
attr title "queueing times, vector"
attr unit s
vector 161 Fanet.host[9].wlan[0].mac sentDownPk:vector(packetBytes) ETV
attr interpolationmode none
attr source packetSentToLower
attr title "packets sent to lower layer, vector(packetBytes)"
vector 162 Fanet.host[8].wlan[0].mac rcvdPkFromLl:vector(packetBytes) ETV
attr interpolationmode none
attr source packetReceivedFromLower
attr title "packets received from lower layer, vector(packetBytes)"
vector 163 Fanet.host[8].wlan[0].mac passedUpPk:vector(packetBytes) ETV
attr interpolationmode none
attr source packetSentToUpper
attr title "packets passed to higher layer, vector(packetBytes)"
vector 164 Fanet.host[1].wlan[0].mac rcvdPkFromHl:vector(packetBytes) ETV
attr interpolationmode none
attr source packetReceivedFromUpper
attr title "packets received from higher layer, vector(packetBytes)"
vector 165 Fanet.host[1].wlan[0].mac.queue packetPushed:vector(packetBytes) ETV
attr interpolationmode none
attr title "packet pushed, vector(packetBytes)"
vector 166 Fanet.host[1].wlan[0].mac.queue queueLength:vector ETV
attr interpolationmode sample-hold
attr source "count(packetPushed) - count(packetPopped) - count(packetRemoved) - count(packetDropped)"
attr title "queue length, vector"
vector 167 Fanet.host[1].wlan[0].mac.queue packetPopped:vector(packetBytes) ETV
attr interpolationmode none
attr title "packet popped, vector(packetBytes)"
vector 168 Fanet.host[1].wlan[0].mac.queue queueingTime:vector ETV
attr interpolationmode none
attr source queueingTime(packetPopped)
attr title "queueing times, vector"
attr unit s
vector 169 Fanet.host[1].wlan[0].mac sentDownPk:vector(packetBytes) ETV
attr interpolationmode none
attr source packetSentToLower
attr title "packets sent to lower layer, vector(packetBytes)"
vector 170 Fanet.host[19].wlan[0].mac rcvdPkFromHl:vector(packetBytes) ETV
attr interpolationmode none
attr source packetReceivedFromUpper
attr title "packets received from higher layer, vector(packetBytes)"
vector 171 Fanet.host[19].wlan[0].mac.queue packetPushed:vector(packetBytes) ETV
attr interpolationmode none
attr title "packet pushed, vector(packetBytes)"
vector 172 Fanet.host[19].wlan[0].mac.queue queueLength:vector ETV
attr interpolationmode sample-hold
attr source "count(packetPushed) - count(packetPopped) - count(packetRemoved) - count(packetDropped)"
attr title "queue length, vector"
vector 173 Fanet.host[19].wlan[0].mac.queue packetPopped:vector(packetBytes) ETV
attr interpolationmode none
attr title "packet popped, vector(packetBytes)"
vector 174 Fanet.host[19].wlan[0].mac.queue queueingTime:vector ETV
attr interpolationmode none
attr source queueingTime(packetPopped)
attr title "queueing times, vector"
attr unit s
vector 175 Fanet.host[19].wlan[0].mac sentDownPk:vector(packetBytes) ETV
attr interpolationmode none
attr source packetSentToLower
attr title "packets sent to lower layer, vector(packetBytes)"
vector 176 Fanet.host[2].wlan[0].mac rcvdPkFromHl:vector(packetBytes) ETV
attr interpolationmode none
attr source packetReceivedFromUpper
attr title "packets received from higher layer, vector(packetBytes)"
vector 177 Fanet.host[2].wlan[0].mac.queue packetPushed:vector(packetBytes) ETV
attr interpolationmode none
attr title "packet pushed, vector(packetBytes)"
vector 178 Fanet.host[2].wlan[0].mac.queue queueLength:vector ETV
attr interpolationmode sample-hold
attr source "count(packetPushed) - count(packetPopped) - count(packetRemoved) - count(packetDropped)"
attr title "queue length, vector"
vector 179 Fanet.host[2].wlan[0].mac.queue packetPopped:vector(packetBytes) ETV
attr interpolationmode none
attr title "packet popped, vector(packetBytes)"
vector 180 Fanet.host[2].wlan[0].mac.queue queueingTime:vector ETV
attr interpolationmode none
attr source queueingTime(packetPopped)
attr title "queueing times, vector"
attr unit s
vector 181 Fanet.host[2].wlan[0].mac sentDownPk:vector(packetBytes) ETV
attr interpolationmode none
attr source packetSentToLower
attr title "packets sent to lower layer, vector(packetBytes)"
vector 182 Fanet.host[6].wlan[0].mac rcvdPkFromHl:vector(packetBytes) ETV
attr interpolationmode none
attr source packetReceivedFromUpper
attr title "packets received from higher layer, vector(packetBytes)"
vector 183 Fanet.host[6].wlan[0].mac.queue packetPushed:vector(packetBytes) ETV
attr interpolationmode none
attr title "packet pushed, vector(packetBytes)"
vector 184 Fanet.host[6].wlan[0].mac.queue queueLength:vector ETV
attr interpolationmode sample-hold
attr source "count(packetPushed) - count(packetPopped) - count(packetRemoved) - count(packetDropped)"
attr title "queue length, vector"
vector 185 Fanet.host[6].wlan[0].mac.queue packetPopped:vector(packetBytes) ETV
attr interpolationmode none
attr title "packet popped, vector(packetBytes)"
vector 186 Fanet.host[6].wlan[0].mac.queue queueingTime:vector ETV
attr interpolationmode none
attr source queueingTime(packetPopped)
attr title "queueing times, vector"
attr unit s
vector 187 Fanet.host[6].wlan[0].mac sentDownPk:vector(packetBytes) ETV
attr interpolationmode none
attr source packetSentToLower
attr title "packets sent to lower layer, vector(packetBytes)"
vector 188 Fanet.host[4].wlan[0].mac rcvdPkFromHl:vector(packetBytes) ETV
attr interpolationmode none
attr source packetReceivedFromUpper
attr title "packets received from higher layer, vector(packetBytes)"
vector 189 Fanet.host[4].wlan[0].mac.queue packetPushed:vector(packetBytes) ETV
attr interpolationmode none
attr title "packet pushed, vector(packetBytes)"
vector 190 Fanet.host[4].wlan[0].mac.queue queueLength:vector ETV
attr interpolationmode sample-hold
attr source "count(packetPushed) - count(packetPopped) - count(packetRemoved) - count(packetDropped)"
attr title "queue length, vector"
vector 191 Fanet.host[4].wlan[0].mac.queue packetPopped:vector(packetBytes) ETV
attr interpolationmode none
attr title "packet popped, vector(packetBytes)"
vector 192 Fanet.host[4].wlan[0].mac.queue queueingTime:vector ETV
attr interpolationmode none
attr source queueingTime(packetPopped)
attr title "queueing times, vector"
attr unit s
vector 193 Fanet.host[4].wlan[0].mac sentDownPk:vector(packetBytes) ETV
attr interpolationmode none
attr source packetSentToLower
attr title "packets sent to lower layer, vector(packetBytes)"
vector 194 Fanet.host[13].wlan[0].mac rcvdPkFromHl:vector(packetBytes) ETV
attr interpolationmode none
attr source packetReceivedFromUpper
attr title "packets received from higher layer, vector(packetBytes)"
vector 195 Fanet.host[13].wlan[0].mac.queue packetPushed:vector(packetBytes) ETV
attr interpolationmode none
attr title "packet pushed, vector(packetBytes)"
vector 196 Fanet.host[13].wlan[0].mac.queue queueLength:vector ETV
attr interpolationmode sample-hold
attr source "count(packetPushed) - count(packetPopped) - count(packetRemoved) - count(packetDropped)"
attr title "queue length, vector"
vector 197 Fanet.host[13].wlan[0].mac.queue packetPopped:vector(packetBytes) ETV
attr interpolationmode none
attr title "packet popped, vector(packetBytes)"
vector 198 Fanet.host[13].wlan[0].mac.queue queueingTime:vector ETV
attr interpolationmode none
attr source queueingTime(packetPopped)
attr title "queueing times, vector"
attr unit s
vector 199 Fanet.host[13].wlan[0].mac sentDownPk:vector(packetBytes) ETV
attr interpolationmode none
attr source packetSentToLower
attr title "packets sent to lower layer, vector(packetBytes)"
vector 200 Fanet.host[15].wlan[0].mac rcvdPkFromHl:vector(packetBytes) ETV
attr interpolationmode none
attr source packetReceivedFromUpper
attr title "packets received from higher layer, vector(packetBytes)"
vector 201 Fanet.host[15].wlan[0].mac.queue packetPushed:vector(packetBytes) ETV
attr interpolationmode none
attr title "packet pushed, vector(packetBytes)"
vector 202 Fanet.host[15].wlan[0].mac.queue queueLength:vector ETV
attr interpolationmode sample-hold
attr source "count(packetPushed) - count(packetPopped) - count(packetRemoved) - count(packetDropped)"
attr title "queue length, vector"
vector 203 Fanet.host[15].wlan[0].mac.queue packetPopped:vector(packetBytes) ETV
attr interpolationmode none
attr title "packet popped, vector(packetBytes)"
vector 204 Fanet.host[15].wlan[0].mac.queue queueingTime:vector ETV
attr interpolationmode none
attr source queueingTime(packetPopped)
attr title "queueing times, vector"
attr unit s
vector 205 Fanet.host[15].wlan[0].mac sentDownPk:vector(packetBytes) ETV
attr interpolationmode none
attr source packetSentToLower
attr title "packets sent to lower layer, vector(packetBytes)"
vector 206 Fanet.host[3].wlan[0].mac rcvdPkFromLl:vector(packetBytes) ETV
attr interpolationmode none
attr source packetReceivedFromLower
attr title "packets received from lower layer, vector(packetBytes)"
vector 207 Fanet.host[3].wlan[0].mac passedUpPk:vector(packetBytes) ETV
attr interpolationmode none
attr source packetSentToUpper
attr title "packets passed to higher layer, vector(packetBytes)"
vector 208 Fanet.host[1].wlan[0].mac rcvdPkFromLl:vector(packetBytes) ETV
attr interpolationmode none
attr source packetReceivedFromLower
attr title "packets received from lower layer, vector(packetBytes)"
vector 209 Fanet.host[1].wlan[0].mac passedUpPk:vector(packetBytes) ETV
attr interpolationmode none
attr source packetSentToUpper
attr title "packets passed to higher layer, vector(packetBytes)"
vector 210 Fanet.host[2].wlan[0].mac rcvdPkFromLl:vector(packetBytes) ETV
attr interpolationmode none
attr source packetReceivedFromLower
attr title "packets received from lower layer, vector(packetBytes)"
vector 211 Fanet.host[2].wlan[0].mac passedUpPk:vector(packetBytes) ETV
attr interpolationmode none
attr source packetSentToUpper
attr title "packets passed to higher layer, vector(packetBytes)"
vector 212 Fanet.host[4].wlan[0].mac rcvdPkFromLl:vector(packetBytes) ETV
attr interpolationmode none
attr source packetReceivedFromLower
attr title "packets received from lower layer, vector(packetBytes)"
vector 213 Fanet.host[4].wlan[0].mac passedUpPk:vector(packetBytes) ETV
attr interpolationmode none
attr source packetSentToUpper
attr title "packets passed to higher layer, vector(packetBytes)"
vector 214 Fanet.host[6].wlan[0].mac rcvdPkFromLl:vector(packetBytes) ETV
attr interpolationmode none
attr source packetReceivedFromLower
attr title "packets received from lower layer, vector(packetBytes)"
vector 215 Fanet.host[6].wlan[0].mac passedUpPk:vector(packetBytes) ETV
attr interpolationmode none
attr source packetSentToUpper
attr title "packets passed to higher layer, vector(packetBytes)"
vector 216 Fanet.host[7].wlan[0].mac rcvdPkFromLl:vector(packetBytes) ETV
attr interpolationmode none
attr source packetReceivedFromLower
attr title "packets received from lower layer, vector(packetBytes)"
vector 217 Fanet.host[7].wlan[0].mac passedUpPk:vector(packetBytes) ETV
attr interpolationmode none
attr source packetSentToUpper
attr title "packets passed to higher layer, vector(packetBytes)"
vector 218 Fanet.host[16].wlan[0].mac rcvdPkFromLl:vector(packetBytes) ETV
attr interpolationmode none
attr source packetReceivedFromLower
attr title "packets received from lower layer, vector(packetBytes)"
vector 219 Fanet.host[16].wlan[0].mac passedUpPk:vector(packetBytes) ETV
attr interpolationmode none
attr source packetSentToUpper
attr title "packets passed to higher layer, vector(packetBytes)"
vector 220 Fanet.host[0].wlan[0].mac rcvdPkFromLl:vector(packetBytes) ETV
attr interpolationmode none
attr source packetReceivedFromLower
attr title "packets received from lower layer, vector(packetBytes)"
vector 221 Fanet.host[0].wlan[0].mac passedUpPk:vector(packetBytes) ETV
attr interpolationmode none
attr source packetSentToUpper
attr title "packets passed to higher layer, vector(packetBytes)"
vector 222 Fanet.host[9].wlan[0].mac packetDropNotAddressedToUs:vector(packetBytes) ETV
attr interpolationmode none
attr source packetDropReasonIsNotAddressedToUs(packetDropped)
attr title "packet drop: not addressed to us, vector(packetBytes)"
vector 223 Fanet.host[0].wlan[0].mac packetDropNotAddressedToUs:vector(packetBytes) ETV
attr interpolationmode none
attr source packetDropReasonIsNotAddressedToUs(packetDropped)
attr title "packet drop: not addressed to us, vector(packetBytes)"
vector 224 Fanet.host[6].wlan[0].mac packetDropNotAddressedToUs:vector(packetBytes) ETV
attr interpolationmode none
attr source packetDropReasonIsNotAddressedToUs(packetDropped)
attr title "packet drop: not addressed to us, vector(packetBytes)"
vector 225 Fanet.host[4].wlan[0].mac packetDropNotAddressedToUs:vector(packetBytes) ETV
attr interpolationmode none
attr source packetDropReasonIsNotAddressedToUs(packetDropped)
attr title "packet drop: not addressed to us, vector(packetBytes)"
vector 226 Fanet.host[18].wlan[0].mac packetDropNotAddressedToUs:vector(packetBytes) ETV
attr interpolationmode none
attr source packetDropReasonIsNotAddressedToUs(packetDropped)
attr title "packet drop: not addressed to us, vector(packetBytes)"
vector 227 Fanet.host[15].wlan[0].mac packetDropNotAddressedToUs:vector(packetBytes) ETV
attr interpolationmode none
attr source packetDropReasonIsNotAddressedToUs(packetDropped)
attr title "packet drop: not addressed to us, vector(packetBytes)"
vector 228 Fanet.host[17].wlan[0].mac packetDropNotAddressedToUs:vector(packetBytes) ETV
attr interpolationmode none
attr source packetDropReasonIsNotAddressedToUs(packetDropped)
attr title "packet drop: not addressed to us, vector(packetBytes)"
vector 229 Fanet.host[2].wlan[0].mac packetDropNotAddressedToUs:vector(packetBytes) ETV
attr interpolationmode none
attr source packetDropReasonIsNotAddressedToUs(packetDropped)
attr title "packet drop: not addressed to us, vector(packetBytes)"
vector 230 Fanet.host[9].ipv4.ip packetDropHopLimitReached:vector(packetBytes) ETV
attr interpolationmode none
attr source packetDropReasonIsHopLimitReached(packetDropped)
attr title "packet drop: hop limit reached, vector(packetBytes)"
vector 231 Fanet.host[7].wlan[0].mac packetDropNotAddressedToUs:vector(packetBytes) ETV
attr interpolationmode none
attr source packetDropReasonIsNotAddressedToUs(packetDropped)
attr title "packet drop: not addressed to us, vector(packetBytes)"
vector 232 Fanet.host[17].ipv4.ip packetDropHopLimitReached:vector(packetBytes) ETV
attr interpolationmode none
attr source packetDropReasonIsHopLimitReached(packetDropped)
attr title "packet drop: hop limit reached, vector(packetBytes)"
vector 233 Fanet.host[14].wlan[0].mac packetDropNotAddressedToUs:vector(packetBytes) ETV
attr interpolationmode none
attr source packetDropReasonIsNotAddressedToUs(packetDropped)
attr title "packet drop: not addressed to us, vector(packetBytes)"
vector 234 Fanet.host[0].ipv4.ip packetDropHopLimitReached:vector(packetBytes) ETV
attr interpolationmode none
attr source packetDropReasonIsHopLimitReached(packetDropped)
attr title "packet drop: hop limit reached, vector(packetBytes)"
vector 235 Fanet.host[0].lo[0].lo rcvdPkFromHl:vector(packetBytes) ETV
attr interpolationmode none
attr source packetReceivedFromUpper
attr title "packets received from higher layer, vector(packetBytes)"
vector 236 Fanet.host[0].lo[0].lo passedUpPk:vector(packetBytes) ETV
attr interpolationmode none
attr source packetSentToUpper
attr title "packets passed to higher layer, vector(packetBytes)"
vector 237 Fanet.host[11].wlan[0].mac packetDropNotAddressedToUs:vector(packetBytes) ETV
attr interpolationmode none
attr source packetDropReasonIsNotAddressedToUs(packetDropped)
attr title "packet drop: not addressed to us, vector(packetBytes)"
vector 238 Fanet.host[12].wlan[0].mac packetDropNotAddressedToUs:vector(packetBytes) ETV
attr interpolationmode none
attr source packetDropReasonIsNotAddressedToUs(packetDropped)
attr title "packet drop: not addressed to us, vector(packetBytes)"
vector 239 Fanet.host[4].ipv4.ip packetDropHopLimitReached:vector(packetBytes) ETV
attr interpolationmode none
attr source packetDropReasonIsHopLimitReached(packetDropped)
attr title "packet drop: hop limit reached, vector(packetBytes)"
vector 240 Fanet.host[13].wlan[0].mac packetDropNotAddressedToUs:vector(packetBytes) ETV
attr interpolationmode none
attr source packetDropReasonIsNotAddressedToUs(packetDropped)
attr title "packet drop: not addressed to us, vector(packetBytes)"
vector 241 Fanet.host[19].wlan[0].mac packetDropNotAddressedToUs:vector(packetBytes) ETV
attr interpolationmode none
attr source packetDropReasonIsNotAddressedToUs(packetDropped)
attr title "packet drop: not addressed to us, vector(packetBytes)"
vector 242 Fanet.host[13].ipv4.ip packetDropHopLimitReached:vector(packetBytes) ETV
attr interpolationmode none
attr source packetDropReasonIsHopLimitReached(packetDropped)
attr title "packet drop: hop limit reached, vector(packetBytes)"
vector 243 Fanet.host[19].ipv4.ip packetDropHopLimitReached:vector(packetBytes) ETV
attr interpolationmode none
attr source packetDropReasonIsHopLimitReached(packetDropped)
attr title "packet drop: hop limit reached, vector(packetBytes)"
vector 244 Fanet.host[8].wlan[0].mac packetDropNotAddressedToUs:vector(packetBytes) ETV
attr interpolationmode none
attr source packetDropReasonIsNotAddressedToUs(packetDropped)
attr title "packet drop: not addressed to us, vector(packetBytes)"
vector 245 Fanet.host[0].app[0] throughput:vector ETV
attr source throughput(packetReceived)
attr title "throughput, vector"
attr unit bps
vector 246 Fanet.host[10].app[0] throughput:vector ETV
attr source throughput(packetReceived)
attr title "throughput, vector"
attr unit bps
0	0	0	0
0	0	0	0
0	0	0	4
1	0	0	0
1	0	0	0
1	0	0	4
2	0	0	0
2	0	0	0
2	0	0	4
3	0	0	0
3	0	0	0
3	0	0	4
4	0	0	0
4	0	0	0
4	0	0	4
5	0	0	0
5	0	0	0
5	0	0	4
6	0	0	0
6	0	0	0
6	0	0	4
7	0	0	0
7	0	0	0
7	0	0	4
8	0	0	0
8	0	0	0
8	0	0	4
9	0	0	0
9	0	0	0
9	0	0	4
10	0	0	0
10	0	0	0
10	0	0	4
11	0	0	0
11	0	0	0
11	0	0	4
12	0	0	0
12	0	0	0
12	0	0	4
13	0	0	0
13	0	0	0
13	0	0	4
14	0	0	0
14	0	0	0
14	0	0	4
15	0	0	0
15	0	0	0
15	0	0	4
16	0	0	0
16	0	0	0
16	0	0	4
17	0	0	0
17	0	0	0
17	0	0	4
18	0	0	0
18	0	0	0
18	0	0	4
19	0	0	0
19	0	0	0
19	0	0	4
20	0	0	1
20	39513	133.094606116798	3
20	39536	133.094628783465	1
20	39907	134.12376038783	3
20	39944	134.124125721163	1
20	40036	134.223760385158	3
20	40057	134.224125718491	1
20	40171	134.563621421266	3
20	40208	134.563986754599	1
20	40303	134.723955507265	3
20	40340	134.724320840598	1
20	41577	138.73190495231	3
20	41614	138.732270285643	1
20	41689	138.879129983638	3
20	41726	138.879495316971	1
20	42327	140.605763296934	3
20	42364	140.606128630267	1
20	42459	140.859774664596	3
20	42496	140.860139997929	1
20	42571	140.962743024222	3
20	42608	140.963108357555	1
20	43299	142.944633326991	3
20	43335	142.944998660324	1
20	43491	143.474594903656	3
20	43527	143.474960236989	1
20	43730	143.919744234343	3
20	43766	143.920109567676	1
20	43859	144.019744233894	3
20	43879	144.020109567227	1
20	44034	144.527291369448	3
20	44070	144.527656702781	1
20	44166	144.791561829043	3
20	44202	144.791927162376	1
20	44298	144.933687338096	3
20	44334	144.934052671429	1
20	44525	145.03368733712	3
20	44545	145.034052670453	1
20	44635	145.133687335812	3
20	44655	145.134052669145	1
20	44882	145.765064965562	3
20	44918	145.765430298895	1
20	45258	146.584041389599	3
20	45278	146.584064056266	1
20	45706	147.909450320944	3
20	45743	147.909815654277	1
20	45992	148.475344833245	3
20	46029	148.475710166578	1
20	46545	150.244964593985	3
20	46582	150.245329927318	1
20	46711	150.34649867576	3
20	46748	150.346864009093	1
20	46824	150.487466557326	3
20	46861	150.487831890659	1
20	46999	150.587466556371	3
20	47019	150.587831889704	1
20	47214	151.213735950038	3
20	47251	151.214101283371	1
20	47428	151.827175032012	3
20	47465	151.827540365345	1
20	47769	152.432548009322	3
20	47795	152.432570675989	1
20	47872	152.570759191463	3
20	47912	152.571124524796	1
20	47962	152.57149137606	3
20	47998	152.571856709393	1
20	48177	153.13892967458	3
20	48217	153.139295007913	1
20	48267	153.139661804369	3
20	48303	153.140027137702	1
20	48805	154.89264435903	3
20	48843	154.893009692363	1
20	48895	154.893376325246	3
20	48930	154.893741658579	1
20	49027	154.993376326952	3
20	49051	154.993741660285	1
20	49103	154.994108285164	3
20	49138	154.994473618497	1
20	49467	156.061908535019	3
20	49507	156.062273868352	1
20	49556	156.06264038966	3
20	49592	156.063005722993	1
20	50103	157.57012377754	3
20	50142	157.570489110873	1
20	50283	157.766585664461	3
20	50322	157.766950997794	1
20	50491	157.839004774962	3
20	50529	157.839370108295	1
20	50746	158.157588624755	3
20	50785	158.157953958088	1
20	50926	158.300841647107	3
20	50965	158.30120698044	1
20	51032	158.358159701298	3
20	51052	158.358182367965	1
20	51563	159.811303263242	3
20	51602	159.811668596575	1
20	51918	160.486254243043	3
20	51957	160.486619576376	1
20	52652	162.629353980594	3
20	52691	162.629719313927	1
20	63728	195.066373592033	3
20	63754	195.0663962587	1
20	65323	198.597259096306	3
20	65346	198.597281762973	1
20	67606	204.89278686199	3
20	67645	204.893152195323	1
20	69042	204.90419128072	3
20	69080	204.904245947387	1
20	69085	204.904246150167	3
20	69121	204.904300816834	1
20	69562	206.233062794349	3
20	69602	206.233428127682	1
20	70978	206.244466281833	3
20	71017	206.2445209485	1
20	71021	206.244521101918	3
20	71056	206.244575768585	1
20	71179	206.564693314092	3
20	71205	206.564715980759	1
20	71781	208.50031190693	3
20	71801	208.500334573597	1
20	72108	209.703707698849	3
20	72149	209.704073032182	1
20	72156	209.704073557287	3
20	72196	209.70443889062	1
20	72246	209.70480559509	3
20	72286	209.705170928423	1
20	72336	209.705537632886	3
20	72376	209.705902966219	1
20	72426	209.706269670676	3
20	72466	209.706635004009	1
20	72516	209.70700170846	3
20	72556	209.707367041793	1
20	72606	209.707733746238	3
20	72646	209.708099079571	1
20	72696	209.70846578401	3
20	72736	209.708831117343	1
20	72786	209.709197821776	3
20	72826	209.709563155109	1
20	72876	209.709929859536	3
20	72916	209.710295192869	1
20	72966	209.710661897291	3
20	73006	209.711027230624	1
20	73056	209.71139393504	3
20	73096	209.711759268373	1
20	73146	209.712125972783	3
20	73186	209.712491306116	1
20	73236	209.71285801052	3
20	73276	209.713223343853	1
20	73326	209.713590048251	3
20	73367	209.713955381584	1
20	73418	209.714322085976	3
20	73459	209.714687419309	1
20	73511	209.715054123695	3
20	73548	209.715108790362	1
20	73675	209.968489969001	3
20	73716	209.968855302334	1
20	73723	209.968855803085	3
20	73763	209.969221136418	1
20	73813	209.969587839011	3
20	73853	209.969953172344	1
20	73903	209.970319874931	3
20	73943	209.970685208264	1
20	73993	209.971051910846	3
20	74033	209.971417244179	1
20	74083	209.971783946757	3
20	74123	209.97214928009	1
20	74173	209.972515982665	3
20	74213	209.972881315998	1
20	74263	209.973248018568	3
20	74303	209.973613351901	1
20	74353	209.973980054465	3
20	74393	209.974345387798	1
20	74443	209.974712090358	3
20	74483	209.975077423691	1
20	74533	209.975444126248	3
20	74573	209.975809459581	1
20	74623	209.976176162133	3
20	74663	209.976541495466	1
20	74713	209.976908198012	3
20	74753	209.977273531345	1
20	74803	209.977640233887	3
20	74843	209.97800556722	1
20	74893	209.978372269759	3
20	74934	209.978737603092	1
20	74985	209.979104305626	3
20	75026	209.979469638959	1
20	75078	209.979836341489	3
20	75115	209.979891008156	1
20	75379	210.396997555285	3
20	75420	210.397362888618	1
20	75427	210.397363350453	3
20	75467	210.397728683786	1
20	75517	210.398095386656	3
20	75557	210.398460719989	1
20	75607	210.398827422861	3
20	75647	210.399192756194	1
20	75697	210.399559459068	3
20	75737	210.399924792401	1
20	75807	210.400291495277	3
20	75847	210.40065682861	1
20	75897	210.401023531489	3
20	75937	210.401388864822	1
20	75987	210.401755567703	3
20	76027	210.402120901036	1
20	76077	210.402487603919	3
20	76117	210.402852937252	1
20	76167	210.403219640137	3
20	76207	210.40358497347	1
20	76257	210.403951676357	3
20	76297	210.40431700969	1
20	76347	210.404683712579	3
20	76387	210.405049045912	1
20	76437	210.405415748803	3
20	76477	210.405781082136	1
20	76527	210.406147785029	3
20	76567	210.406513118362	1
20	76617	210.406879821258	3
20	76658	210.407245154591	1
20	76709	210.407611857489	3
20	76750	210.407977190822	1
20	76802	210.408343893722	3
20	76839	210.408398560389	1
20	77873	213.960384800067	3
20	77893	213.960407466734	1
20	77932	213.992758704642	3
20	77961	213.992781371309	1
20	78205	214.630012669412	3
20	78246	214.630378002745	1
20	78252	214.630379058716	3
20	78289	214.630744392049	1
20	78433	214.889124890437	3
20	78474	214.88949022377	1
20	78480	214.88949129144	3
20	78517	214.889856624773	1
20	79165	217.051284402292	3
20	79194	217.051307068959	1
20	79436	217.904093454165	3
20	79476	217.904458787498	1
20	79479	217.904459274909	3
20	79515	217.904824608242	1
20	79524	217.904825064678	3
20	79559	217.905190398011	1
20	80019	219.85126236311	3
20	80048	219.851285029777	1
20	80136	220.170983727111	3
20	80156	220.171006393778	1
20	80314	220.389724281245	3
20	80355	220.390089614578	1
20	80357	220.390090120979	3
20	80392	220.390455454312	1
20	80449	220.390822011037	3
20	80484	220.39118734437	1
20	80499	220.391188553267	3
20	80539	220.3915538866	1
20	80543	220.391553995889	3
20	80577	220.391919329222	1
20	80592	220.39192035671	3
20	80629	220.392285690043	1
20	80734	220.532227208804	3
20	80775	220.532592542137	1
20	80777	220.532593063542	3
20	80812	220.532958396875	1
20	80869	220.533324952359	3
20	80904	220.533690285692	1
20	80919	220.533691500129	3
20	80959	220.534056833462	1
20	80963	220.534056952364	3
20	80997	220.534422285697	1
20	81012	220.534423305805	3
20	81049	220.534788639138	1
20	81257	221.0010228423	3
20	81297	221.001388175633	1
20	81306	221.001389213812	3
20	81345	221.001754547145	1
20	81349	221.001754701565	3
20	81383	221.002120034898	1
20	81396	221.00212102881	3
20	81436	221.002486362143	1
20	81445	221.002487400325	3
20	81484	221.002852733658	1
20	81488	221.00285288814	3
20	81522	221.003218221473	1
20	81535	221.003219215348	3
20	81575	221.003584548681	1
20	81584	221.003585586867	3
20	81623	221.0039509202	1
20	81627	221.003951074744	3
20	81661	221.004316408077	1
20	81674	221.004317401913	3
20	81714	221.004682735246	1
20	81723	221.004683773436	3
20	81762	221.005049106769	1
20	81766	221.005049261375	3
20	81800	221.005414594708	1
20	81813	221.005415588505	3
20	81853	221.005780921838	1
20	81862	221.005781960032	3
20	81901	221.006147293365	1
20	81905	221.006147448033	3
20	81939	221.006512781366	1
20	81952	221.006513775125	3
20	81992	221.006879108458	1
20	82001	221.006880146655	3
20	82040	221.007245479988	1
20	82044	221.007245634717	3
20	82078	221.00761096805	1
20	82091	221.007611961771	3
20	82131	221.007977295104	1
20	82140	221.007978333305	3
20	82179	221.008343666638	1
20	82183	221.00834382143	3
20	82217	221.008709154763	1
20	82230	221.008710148446	3
20	82270	221.009075481779	1
20	82279	221.009076519984	3
20	82318	221.009441853317	1
20	82322	221.00944200817	3
20	82356	221.009807341503	1
20	82369	221.009808335147	3
20	82409	221.01017366848	1
20	82418	221.010174706689	3
20	82457	221.010540040022	1
20	82461	221.010540194937	3
20	82495	221.01090552827	1
20	82508	221.010906521876	3
20	82549	221.011271855209	1
20	82558	221.011272893421	3
20	82598	221.011638226754	1
20	82602	221.011638381731	3
20	82637	221.012003715064	1
20	82650	221.012004708632	3
20	82692	221.012370041965	1
20	82701	221.012371080181	3
20	82737	221.012425746848	1
20	83233	222.382481826506	3
20	83272	222.382847159839	1
20	83283	222.38284820391	3
20	83322	222.383213537243	1
20	83326	222.383213791261	3
20	83360	222.383579124594	1
20	83372	222.383580060257	3
20	83411	222.38394539359	1
20	83422	222.383946437666	3
20	83461	222.384311770999	1
20	83465	222.384312025125	3
20	83499	222.384677358458	1
20	83511	222.384678294058	3
20	83550	222.385043627391	1
20	83561	222.385044671471	3
20	83600	222.385410004804	1
20	83604	222.385410259038	3
20	83638	222.385775592371	1
20	83650	222.38577652791	3
20	83689	222.386141861243	1
20	83700	222.386142905327	3
20	83739	222.38650823866	1
20	83743	222.386508493001	3
20	83777	222.386873826334	1
20	83789	222.386874761811	3
20	83828	222.387240095144	1
20	83839	222.387241139233	3
20	83878	222.387606472566	1
20	83882	222.387606727016	3
20	83916	222.387972060349	1
20	83928	222.387972995763	3
20	83967	222.388338329096	1
20	83978	222.388339373189	3
20	84017	222.388704706522	1
20	84021	222.388704961079	3
20	84055	222.389070294412	1
20	84067	222.389071229764	3
20	84106	222.389436563097	1
20	84117	222.389437607195	3
20	84156	222.389802940528	1
20	84160	222.389803195194	3
20	84194	222.390168528527	1
20	84206	222.390169463817	3
20	84245	222.39053479715	1
20	84256	222.390535841251	3
20	84295	222.390901174584	1
20	84299	222.390901429358	3
20	84333	222.391266762691	1
20	84345	222.391267697919	3
20	84384	222.391633031252	1
20	84395	222.391634075359	3
20	84434	222.391999408692	1
20	84438	222.391999663574	3
20	84472	222.392364996907	1
20	84484	222.392365932073	3
20	84524	222.392731265406	1
20	84535	222.392732309516	3
20	84575	222.393097642849	1
20	84579	222.393097897839	3
20	84614	222.393463231172	1
20	84626	222.393464166275	3
20	84667	222.393829499608	1
20	84678	222.393830543724	3
20	84714	222.393885210391	1
20	84992	223.083527285316	3
20	85031	223.083892618649	1
20	85043	223.083893666614	3
20	85082	223.084258999947	1
20	85086	223.084259328267	3
20	85120	223.0846246616	1
20	85132	223.084625557464	3
20	85171	223.084990890797	1
20	85183	223.084991938774	3
20	85222	223.085357272107	1
20	85226	223.085357600561	3
20	85260	223.085722933894	1
20	85272	223.085723829701	3
20	85311	223.086089163034	1
20	85323	223.086090211025	3
20	85362	223.086455544358	1
20	85366	223.086455872945	3
20	85400	223.086821206278	1
20	85412	223.086822102029	3
20	85451	223.087187435362	1
20	85463	223.087188483366	3
20	85502	223.087553816699	1
20	85506	223.087554145419	3
20	85540	223.087919478752	1
20	85552	223.087920374447	3
20	85591	223.08828570778	1
20	85603	223.088286755796	3
20	85642	223.088652089129	1
20	85646	223.088652417983	3
20	85680	223.089017751316	1
20	85692	223.089018646955	3
20	85731	223.089383980288	1
20	85743	223.089385028317	3
20	85782	223.08975036165	1
20	85786	223.089750690637	3
20	85820	223.09011602397	1
20	85832	223.090116919554	3
20	85871	223.090482252887	1
20	85883	223.090483300928	3
20	85922	223.090848634261	1
20	85926	223.090848963381	3
20	85960	223.091214296714	1
20	85972	223.091215192241	3
20	86011	223.091580525574	1
20	86023	223.091581573629	3
20	86062	223.091946906962	1
20	86066	223.091947236215	3
20	86100	223.092312569548	1
20	86112	223.092313465019	3
20	86151	223.092678798352	1
20	86163	223.092679846419	3
20	86202	223.093045179752	1
20	86206	223.093045509138	3
20	86240	223.093410842471	1
20	86252	223.093411737887	3
20	86292	223.09377707122	1
20	86304	223.0937781193	3
20	86344	223.094143452633	1
20	86348	223.094143782153	3
20	86383	223.094509115486	1
20	86395	223.094510010846	3
20	86436	223.094875344179	1
20	86448	223.094876392271	3
20	86484	223.094931058938	1
20	86699	223.446606101028	3
20	86738	223.446971434361	1
20	86750	223.446972486527	3
20	86789	223.44733781986	1
20	86793	223.447338193616	3
20	86827	223.447703526949	1
20	86839	223.447704403767	3
20	86878	223.4480697371	1
20	86890	223.44807078928	3
20	86929	223.448436122613	1
20	86933	223.44843649651	3
20	86967	223.448801829843	1
20	86979	223.448802706601	3
20	87018	223.449168039934	1
20	87030	223.449169092126	3
20	87069	223.449534425459	1
20	87073	223.449534799498	3
20	87107	223.449900132831	1
20	87119	223.44990100953	3
20	87158	223.450266342863	1
20	87170	223.450267395068	3
20	87209	223.450632728401	1
20	87213	223.450633102583	3
20	87247	223.450998435916	1
20	87259	223.450999312555	3
20	87298	223.451364645888	1
20	87310	223.451365698106	3
20	87349	223.451731031439	1
20	87353	223.451731405761	3
20	87387	223.452096739094	1
20	87399	223.452097615674	3
20	87438	223.452462949007	1
20	87450	223.452464001237	3
20	87489	223.45282933457	1
20	87493	223.452829709034	3
20	87527	223.453195042367	1
20	87539	223.453195918888	3
20	87578	223.453561252221	1
20	87590	223.453562304464	3
20	87629	223.453927637797	1
20	87633	223.453928012403	3
20	87667	223.454293345736	1
20	87679	223.454294222198	3
20	87718	223.454659555531	1
20	87730	223.454660607787	3
20	87769	223.45502594112	1
20	87773	223.455026315868	3
20	87807	223.455391649201	1
20	87819	223.455392525604	3
20	87858	223.455757858937	1
20	87870	223.455758911205	3
20	87909	223.456124244538	1
20	87913	223.456124619428	3
20	87947	223.456489952761	1
20	87959	223.456490829105	3
20	87999	223.456856162438	1
20	88011	223.456857214718	3
20	88051	223.457222548051	1
20	88055	223.457222923082	3
20	88090	223.457588256415	1
20	88102	223.457589132699	3
20	88143	223.457954466032	1
20	88155	223.457955518326	3
20	88191	223.458010184993	1
20	88361	223.880270929115	3
20	88397	223.880636262448	1
20	88408	223.880637077555	3
20	88442	223.881002410888	1
20	88499	223.881368914675	3
20	88534	223.881734248008	1
20	88546	223.881735266623	3
20	88580	223.882100599956	1
20	88595	223.882101967728	3
20	88635	223.882467301061	1
20	88639	223.882467732777	3
20	88673	223.88283306611	1
20	88730	223.883199569926	3
20	88765	223.883564903259	1
20	88777	223.883565922037	3
20	88811	223.88393125537	1
20	88826	223.883932623197	3
20	88866	223.88429795653	1
20	88870	223.884298388497	3
20	88904	223.88466372183	1
20	88961	223.885030225674	3
20	88996	223.885395559007	1
20	89008	223.885396577949	3
20	89042	223.885761911282	1
20	89057	223.885763279164	3
20	89097	223.886128612497	1
20	89101	223.886129044715	3
20	89135	223.886494378048	1
20	89192	223.88686088192	3
20	89227	223.887226215253	1
20	89239	223.887227234361	3
20	89273	223.887592567694	1
20	89288	223.887593935629	3
20	89328	223.887959268962	1
20	89332	223.887959701432	3
20	89366	223.888325034765	1
20	89423	223.888691538665	3
20	89458	223.889056871998	1
20	89470	223.88905789127	3
20	89504	223.889423224603	1
20	89519	223.889424592593	3
20	89559	223.889789925926	1
20	89563	223.889790358647	3
20	89597	223.89015569198	1
20	89655	223.890522195909	3
20	89691	223.890887529242	1
20	89703	223.890888548678	3
20	89738	223.891253882011	1
20	89753	223.891255250055	3
20	89795	223.891620583388	1
20	89799	223.891621016362	3
20	89833	223.891675683029	1
20	90352	225.221172586389	3
20	90388	225.221537919722	1
20	90399	225.221538849596	3
20	90433	225.221904182929	1
20	90491	225.22227086803	3
20	90527	225.222636201363	1
20	90538	225.22263713136	3
20	90572	225.223002464693	1
20	90630	225.223369149761	3
20	90666	225.223734483094	1
20	90677	225.223735413213	3
20	90711	225.224100746546	1
20	90769	225.224467431581	3
20	90805	225.224832764914	1
20	90816	225.224833695156	3
20	90850	225.225199028489	1
20	90908	225.225565713492	3
20	90944	225.225931046825	1
20	90955	225.22593197719	3
20	90989	225.226297310523	1
20	91047	225.226663995493	3
20	91083	225.227029328826	1
20	91094	225.227030259314	3
20	91128	225.227395592647	1
20	91186	225.227762277585	3
20	91222	225.228127610918	1
20	91233	225.228128541528	3
20	91267	225.228493874861	1
20	91325	225.228860559766	3
20	91361	225.229225893099	1
20	91372	225.229226823832	3
20	91406	225.229592157165	1
20	91464	225.229958842037	3
20	91500	225.23032417537	1
20	91511	225.230325106226	3
20	91545	225.230690439559	1
20	91603	225.231057124399	3
20	91640	225.231422457732	1
20	91651	225.231423388711	3
20	91686	225.231788722044	1
20	91745	225.232155406852	3
20	91782	225.232520740185	1
20	91794	225.232521671287	3
20	91828	225.232576337954	1
20	92029	225.903658278834	3
20	92052	225.903680945501	1
20	92092	225.989428758235	3
20	92121	225.989451424902	1
20	92242	226.226289237521	3
20	92282	226.226654570854	1
20	92284	226.226654641725	3
20	92320	226.227019975058	1
20	92332	226.227021018799	3
20	92365	226.227386352132	1
20	92422	226.227752923126	3
20	92457	226.228118256459	1
20	92469	226.22811949455	3
20	92503	226.228484827883	1
20	92515	226.228485559042	3
20	92554	226.228850892375	1
20	92566	226.228851983174	3
20	92606	226.229217316507	1
20	92608	226.229217387314	3
20	92644	226.229582720647	1
20	92656	226.229583764679	3
20	92689	226.229949098012	1
20	92746	226.230315669078	3
20	92781	226.230681002411	1
20	92793	226.23068224087	3
20	92827	226.231047574203	1
20	92839	226.231048305312	3
20	92878	226.231413638645	1
20	92890	226.231414729435	3
20	92930	226.231780062768	1
20	92932	226.231780133512	3
20	92968	226.232145466845	1
20	92980	226.232146511166	3
20	93013	226.232511844499	1
20	93070	226.232878415637	3
20	93105	226.23324374897	1
20	93117	226.233244987798	3
20	93151	226.233610321131	1
20	93163	226.233611052188	3
20	93202	226.233976385521	1
20	93214	226.233977476303	3
20	93254	226.234342809636	1
20	93256	226.234342880316	3
20	93292	226.234708213649	1
20	93304	226.23470925826	3
20	93337	226.235074591593	1
20	93394	226.235441162805	3
20	93429	226.235806496138	1
20	93441	226.235807735335	3
20	93475	226.236173068668	1
20	93487	226.236173799673	3
20	93527	226.236539133006	1
20	93539	226.23654022378	3
20	93580	226.236905557113	1
20	93582	226.236905627729	3
20	93619	226.237270961062	1
20	93631	226.237272005963	3
20	93665	226.237637339296	1
20	94466	228.912871287134	3
20	94489	228.912893953801	1
20	94574	229.043200914928	3
20	94613	229.043566248261	1
20	94839	229.045398214363	3
20	94879	229.045763547696	1
20	94881	229.045763592712	3
20	94918	229.046128926045	1
20	94974	229.046495596503	3
20	95009	229.046860929836	1
20	95022	229.046861900543	3
20	95057	229.047227233876	1
20	95071	229.047228653187	3
20	95104	229.04759398652	1
20	95159	229.047960572584	3
20	95195	229.048325905917	1
20	95206	229.04832696116	3
20	95240	229.048692294493	1
20	95476	229.184594027902	3
20	95515	229.184959361235	1
20	95741	229.186791305081	3
20	95781	229.187156638414	1
20	95783	229.187156684886	3
20	95820	229.187522018219	1
20	95876	229.187888694382	3
20	95911	229.188254027715	1
20	95924	229.188255004974	3
20	95959	229.188620338307	1
20	95973	229.188621771774	3
20	96006	229.188987105107	1
20	96061	229.189353690439	3
20	96097	229.189719023772	1
20	96108	229.189720092008	3
20	96142	229.190085425341	1
20	96618	230.41927388532	3
20	96657	230.419639218653	1
20	96882	230.421471050624	3
20	96922	230.421836383957	1
20	96925	230.421836451471	3
20	96962	230.422201784804	1
20	97020	230.422568520077	3
20	97054	230.42293385341	1
20	97066	230.422934882301	3
20	97101	230.423300215634	1
20	97116	230.423301793448	3
20	97148	230.423667126781	1
20	97202	230.42403370193	3
20	97239	230.424399035263	1
20	97254	230.424400613242	3
20	97286	230.424765946575	1
20	97340	230.4251325217	3
20	97377	230.425497855033	1
20	97392	230.425499433177	3
20	97424	230.42586476651	1
20	97478	230.426231341609	3
20	97515	230.426596674942	1
20	97530	230.426598253252	3
20	97562	230.426963586585	1
20	97616	230.42733016166	3
20	97653	230.427695494993	1
20	97668	230.427697073468	3
20	97700	230.428062406801	1
20	97754	230.428428981852	3
20	97791	230.428794315185	1
20	97806	230.428795893825	3
20	97838	230.429161227158	1
20	97893	230.429527802185	3
20	97931	230.429893135518	1
20	97946	230.429894714324	3
20	97979	230.430260047657	1
20	98035	230.43062662266	3
20	98072	230.430681289327	1
20	98435	231.533732078982	3
20	98474	231.534097412315	1
20	98699	231.535929209678	3
20	98739	231.536294543011	1
20	98742	231.536294643599	3
20	98779	231.536659976932	1
20	98839	231.537026773232	3
20	98873	231.537392106565	1
20	98883	231.537393183774	3
20	98918	231.537758517107	1
20	98933	231.537760249941	3
20	98965	231.538125583274	1
20	99019	231.538492157363	3
20	99056	231.538857490696	1
20	99071	231.53885922367	3
20	99103	231.539224557003	1
20	99157	231.539591131115	3
20	99194	231.539956464448	1
20	99209	231.539958197561	3
20	99241	231.540323530894	1
20	99295	231.540690105029	3
20	99332	231.541055438362	1
20	99347	231.541057171614	3
20	99379	231.541422504947	1
20	99433	231.541789079106	3
20	99470	231.542154412439	1
20	99485	231.54215614583	3
20	99517	231.542521479163	1
20	99571	231.542888053346	3
20	99608	231.543253386679	1
20	99623	231.54325512021	3
20	99655	231.543620453543	1
20	99710	231.543987027748	3
20	99748	231.544352361081	1
20	99763	231.544354094751	3
20	99796	231.544719428084	1
20	99852	231.545086002313	3
20	99889	231.54514066898	1
20	100085	232.074134771305	3
20	100124	232.074500104638	1
20	100349	232.076331863836	3
20	100389	232.076697197169	1
20	100392	232.07669731982	3
20	100429	232.077062653153	1
20	100489	232.077429476028	3
20	100523	232.077794809361	1
20	100533	232.077795922211	3
20	100568	232.078161255544	1
20	100583	232.078163055285	3
20	100615	232.078528388618	1
20	100669	232.07889497914	3
20	100706	232.079260312473	1
20	100721	232.079262112339	3
20	100753	232.079627445672	1
20	100807	232.079994036256	3
20	100844	232.080359369589	1
20	100859	232.080361169582	3
20	100891	232.080726502915	1
20	100945	232.08109309356	3
20	100982	232.081458426893	1
20	100997	232.081460227013	3
20	101029	232.081825560346	1
20	101083	232.082192151053	3
20	101120	232.082557484386	1
20	101135	232.082559284633	3
20	101167	232.082924617966	1
20	101221	232.083291208735	3
20	101258	232.083656542068	1
20	101273	232.08365834244	3
20	101305	232.084023675773	1
20	101360	232.084390266604	3
20	101398	232.084755599937	1
20	101413	232.084757400436	3
20	101446	232.085122733769	1
20	101502	232.085489324662	3
20	101539	232.085543991329	1
20	101725	232.214879928449	3
20	101764	232.215245261782	1
20	101989	232.217077002016	3
20	102029	232.217442335349	1
20	102032	232.217442463634	3
20	102069	232.217807796967	1
20	102129	232.218174623553	3
20	102163	232.218539956886	1
20	102173	232.218541082903	3
20	102208	232.218906416236	1
20	102223	232.218908232091	3
20	102255	232.219273565424	1
20	102309	232.219640164036	3
20	102346	232.220005497369	1
20	102361	232.220007313349	3
20	102393	232.220372646682	1
20	102447	232.220739245358	3
20	102484	232.221104578691	1
20	102499	232.221106394797	3
20	102531	232.22147172813	1
20	102585	232.221838326871	3
20	102622	232.222203660204	1
20	102637	232.222205476435	3
20	102669	232.222570809768	1
20	102723	232.222937408574	3
20	102760	232.223302741907	1
20	102775	232.223304558263	3
20	102807	232.223669891596	1
20	102861	232.224036490466	3
20	102898	232.224401823799	1
20	102913	232.224403640281	3
20	102945	232.224768973614	1
20	103000	232.225135572548	3
20	103038	232.225500905881	1
20	103053	232.225502722488	3
20	103086	232.225868055821	1
20	103142	232.226234654821	3
20	103179	232.226289321488	1
20	103295	232.320276059703	3
20	103334	232.320641393036	1
20	103559	232.32247311975	3
20	103599	232.322838453083	1
20	103602	232.322838585736	3
20	103639	232.323203919069	1
20	103699	232.323570748537	3
20	103733	232.32393608187	1
20	103743	232.323937217842	3
20	103778	232.324302551175	1
20	103793	232.324304379026	3
20	103825	232.324669712359	1
20	103879	232.325036317251	3
20	103916	232.325401650584	1
20	103931	232.325403478559	3
20	103963	232.325768811892	1
20	104017	232.32613541685	3
20	104054	232.326500750183	1
20	104069	232.326502578284	3
20	104101	232.326867911617	1
20	104155	232.327234516641	3
20	104192	232.327599849974	1
20	104207	232.3276016782	3
20	104239	232.327967011533	1
20	104293	232.328333616625	3
20	104330	232.328698949958	1
20	104345	232.328700778307	3
20	104377	232.32906611164	1
20	104431	232.329432716798	3
20	104468	232.329798050131	1
20	104483	232.329799878606	3
20	104515	232.330165211939	1
20	104570	232.330531817163	3
20	104608	232.330897150496	1
20	104623	232.330898979096	3
20	104656	232.331264312429	1
20	104712	232.331630917719	3
20	104749	232.331685584386	1
20	105219	233.988186136247	3
20	105242	233.988208802914	1
20	105879	235.54559219253	3
20	105913	235.545957525863	1
20	106058	235.547058022888	3
20	106097	235.547423356221	1
20	106101	235.547423607629	3
20	106141	235.547788940962	1
20	106147	235.547789289746	3
20	106184	235.548154623079	1
20	106240	235.548521544422	3
20	106279	235.548886877755	1
20	106281	235.548887456163	3
20	106319	235.549252789496	1
20	106502	235.844945208479	3
20	106536	235.845310541812	1
20	106681	235.846410980189	3
20	106720	235.846776313522	1
20	106724	235.846776584962	3
20	106764	235.847141918295	1
20	106770	235.84714228895	3
20	106807	235.847507622283	1
20	106863	235.847874550798	3
20	106902	235.848239884131	1
20	106904	235.848240429273	3
20	106942	235.848605762606	1
20	107115	236.36705654422	3
20	107149	236.367421877553	1
20	107294	236.368522205984	3
20	107333	236.368887539317	1
20	107337	236.368887847715	3
20	107377	236.369253181048	1
20	107384	236.369253587627	3
20	107420	236.36961892096	1
20	107476	236.369985858531	3
20	107515	236.370351191864	1
20	107517	236.370351688095	3
20	107555	236.370717021428	1
20	107591	236.38884941307	3
20	107617	236.388872079737	1
20	107845	237.170193371963	3
20	107878	237.170558705296	1
20	108023	237.171658825695	3
20	108062	237.172024159028	1
20	108066	237.172024534198	3
20	108106	237.172389867531	1
20	108113	237.172390326819	3
20	108149	237.172755660152	1
20	108204	237.173122612141	3
20	108243	237.173487945474	1
20	108245	237.173488371439	3
20	108283	237.173853704772	1
20	108465	237.489034443989	3
20	108502	237.489399777322	1
20	108642	237.49049980185	3
20	108681	237.490865135183	1
20	108686	237.49086554136	3
20	108727	237.491230874693	1
20	108733	237.49123135225	3
20	108768	237.491596685583	1
20	108823	237.491963645959	3
20	108862	237.492328979292	1
20	108864	237.492329373367	3
20	108902	237.4926947067	1
20	109097	238.002720096017	3
20	109134	238.00308542935	1
20	109274	238.004185300339	3
20	109312	238.004550633672	1
20	109318	238.004551093279	3
20	109359	238.004916426612	1
20	109365	238.004916933973	3
20	109400	238.005282267306	1
20	109455	238.0056492418	3
20	109494	238.006014575133	1
20	109496	238.006014927043	3
20	109534	238.006380260376	1
20	109693	238.288289031733	3
20	109730	238.288654365066	1
20	109870	238.289754156264	3
20	109908	238.290119489597	1
20	109914	238.290119973354	3
20	109955	238.290485306687	1
20	109961	238.290485829923	3
20	109996	238.290851163256	1
20	110051	238.291218142631	3
20	110090	238.291583475964	1
20	110092	238.291583815214	3
20	110130	238.291949148547	1
20	110606	239.521377836591	3
20	110643	239.521743169924	1
20	110783	239.522842615401	3
20	110817	239.523207948734	1
20	110873	239.523574943956	3
20	110912	239.523940277289	1
20	110914	239.523940606097	3
20	110952	239.52430593943	1
20	111008	239.662322919685	3
20	111037	239.662345586352	1
20	111083	239.708232113863	3
20	111109	239.70825478053	1
20	111277	240.265756150924	3
20	111314	240.266121484257	1
20	111455	240.267220822617	3
20	111495	240.26758615595	1
20	111497	240.267586201887	3
20	111534	240.26795153522	1
20	111590	240.268318534989	3
[...]
246	248972	393.8	0
246	248972	393.9	0
246	248972	394	0
246	248972	394.1	0
246	248972	394.2	0
246	248972	394.3	0
246	248972	394.4	0
246	248972	394.5	0
246	248972	394.6	0
246	248972	394.7	0
246	248972	394.8	0
246	248972	394.9	0
246	248972	395	0
246	248972	395.1	0
246	248972	395.2	0
246	248972	395.3	0
246	248972	395.4	0
246	248972	395.5	0
246	248972	395.6	0
246	248972	395.7	0
246	248972	395.8	0
246	248972	395.9	0
246	248972	396	0
246	248972	396.1	0
246	248972	396.2	0
246	248972	396.3	0
246	248972	396.4	0
246	248972	396.5	0
246	248972	396.6	0
246	248972	396.7	0
246	248972	396.8	0
246	248972	396.9	0
246	248972	397	0
246	248972	397.1	0
246	248972	397.2	0
246	248972	397.3	0
246	248972	397.4	0
246	248972	397.5	0
246	248972	397.6	0
246	248972	397.7	0
246	248972	397.8	0
246	248972	397.9	0
246	248972	398	0
246	248972	398.1	0
246	248972	398.2	0
246	248972	398.3	0
246	248972	398.4	0
246	248972	398.5	0
246	248972	398.6	0
246	248972	398.7	0
246	248972	398.8	0
246	248972	398.9	0
246	248972	399	0
246	248972	399.1	0
246	248972	399.2	0
246	248972	399.3	0
246	248972	399.4	0
246	248972	399.5	0
246	248972	399.6	0
246	248972	399.7	0
246	248972	399.8	0
246	248972	399.9	0
246	248972	400	0
246	248972	400.1	0
246	248972	400.2	0
246	248972	400.3	0
246	248972	400.4	0
246	248972	400.5	0
246	248972	400.6	0
246	248972	400.7	0
246	248972	400.8	0
246	248972	400.9	0
246	248972	401	0
246	248972	401.1	0
246	248972	401.2	0
246	248972	401.3	0
246	248972	401.4	0
246	248972	401.5	0
246	248972	401.6	0
246	248972	401.7	0
246	248972	401.8	0
246	248972	401.9	0
246	248972	402	0
246	248972	402.1	0
246	248972	402.2	0
246	248972	402.3	0
246	248972	402.4	0
246	248972	402.5	0
246	248972	402.6	0
246	248972	402.7	0
246	248972	402.8	0
246	248972	402.9	0
246	248972	403	0
246	248972	403.1	0
246	248972	403.2	0
246	248972	403.3	0
246	248972	403.4	0
246	248972	403.5	0
246	248972	403.6	0
246	248972	403.7	0
246	248972	403.8	0
246	248972	403.9	0
246	248972	404	0
246	248972	404.1	0
246	248972	404.2	0
246	248972	404.3	0
246	248972	404.4	0
246	248972	404.5	0
246	248972	404.6	0
246	248972	404.7	0
246	248972	404.8	0
246	248972	404.9	0
246	248972	405	0
246	248972	405.1	0
246	248972	405.2	0
246	248972	405.3	0
246	248972	405.4	0
246	248972	405.5	0
246	248972	405.6	0
246	248972	405.7	0
246	248972	405.8	0
246	248972	405.9	0
246	248972	406	0
246	248972	406.1	0
246	248972	406.2	0
246	248972	406.3	0
246	248972	406.4	0
246	248972	406.5	0
246	248972	406.6	0
246	248972	406.7	0
246	248972	406.8	0
246	248972	406.9	0
246	248972	407	0
246	248972	407.1	0
246	248972	407.2	0
246	248972	407.3	0
246	248972	407.4	0
246	248972	407.5	0
246	248972	407.6	0
246	248972	407.7	0
246	248972	407.8	0
246	248972	407.9	0
246	248972	408	0
246	248972	408.1	0
246	248972	408.2	0
246	248972	408.3	0
246	248972	408.4	0
246	248972	408.5	0
246	248972	408.6	0
246	248972	408.7	0
246	248972	408.8	0
246	248972	408.9	0
246	248972	409	0
246	248972	409.1	0
246	248972	409.2	0
246	248972	409.3	0
246	248972	409.4	0
246	248972	409.5	0
246	248972	409.6	0
246	248972	409.7	0
246	248972	409.8	0
246	248972	409.9	0
246	248972	410	0
246	248972	410.1	0
246	248972	410.2	0
246	248972	410.3	0
246	248972	410.4	0
246	248972	410.5	0
246	248972	410.6	0
246	248972	410.7	0
246	248972	410.8	0
246	248972	410.9	0
246	248972	411	0
246	248972	411.1	0
246	248972	411.2	0
246	248972	411.3	0
246	248972	411.4	0
246	248972	411.5	0
246	248972	411.6	0
246	248972	411.7	0
246	248972	411.8	0
246	248972	411.9	0
246	248972	412	0
246	248972	412.1	0
246	248972	412.2	0
246	248972	412.3	0
246	248972	412.4	0
246	248972	412.5	0
246	248972	412.6	0
246	248972	412.7	0
246	248972	412.8	0
246	248972	412.9	0
246	248972	413	0
246	248972	413.1	0
246	248972	413.2	0
246	248972	413.3	0
246	248972	413.4	0
246	248972	413.5	0
246	248972	413.6	0
246	248972	413.7	0
246	248972	413.8	0
246	248972	413.9	0
246	248972	414	0
246	248972	414.1	0
246	248972	414.2	0
246	248972	414.3	0
246	248972	414.4	0
246	248972	414.5	0
246	248972	414.6	0
246	248972	414.7	0
246	248972	414.8	0
246	248972	414.9	0
246	248972	415	0
246	248972	415.1	0
246	248972	415.2	0
246	248972	415.3	0
246	248972	415.4	0
246	248972	415.5	0
246	248972	415.6	0
246	248972	415.7	0
246	248972	415.8	0
246	248972	415.9	0
246	248972	416	0
246	248972	416.1	0
246	248972	416.2	0
246	248972	416.3	0
246	248972	416.4	0
246	248972	416.5	0
246	248972	416.6	0
246	248972	416.7	0
246	248972	416.8	0
246	248972	416.9	0
246	248972	417	0
246	248972	417.1	0
246	248972	417.2	0
246	248972	417.3	0
246	248972	417.4	0
246	248972	417.5	0
246	248972	417.6	0
246	248972	417.7	0
246	248972	417.8	0
246	248972	417.9	0
246	248972	418	0
246	248972	418.1	0
246	248972	418.2	0
246	248972	418.3	0
246	248972	418.4	0
246	248972	418.5	0
246	248972	418.6	0
246	248972	418.7	0
246	248972	418.8	0
246	248972	418.9	0
246	248972	419	0
246	248972	419.1	0
246	248972	419.2	0
246	248972	419.3	0
246	248972	419.4	0
246	248972	419.5	0
246	248972	419.6	0
246	248972	419.7	0
246	248972	419.8	0
246	248972	419.9	0
246	248972	420	0
246	248972	420.1	0
246	248972	420.2	0
246	248972	420.3	0
246	248972	420.4	0
246	248972	420.5	0
246	248972	420.6	0
246	248972	420.7	0
246	248972	420.8	0
246	248972	420.9	0
246	248972	421	0
246	248972	421.1	0
246	248972	421.2	0
246	248972	421.3	0
246	248972	421.4	0
246	248972	421.5	0
246	248972	421.6	0
246	248972	421.7	0
246	248972	421.8	0
246	248972	421.9	0
246	248972	422	0
246	248972	422.1	0
246	248972	422.2	0
246	248972	422.3	0
246	248972	422.4	0
246	248972	422.5	0
246	248972	422.6	0
246	248972	422.7	0
246	248972	422.8	0
246	248972	422.9	0
246	248972	423	0
246	248972	423.1	0
246	248972	423.2	0
246	248972	423.3	0
246	248972	423.4	0
246	248972	423.5	0
246	248972	423.6	0
246	248972	423.7	0
246	248972	423.8	0
246	248972	423.9	0
246	248972	424	0
246	248972	424.1	0
246	248972	424.2	0
246	248972	424.3	0
246	248972	424.4	0
246	248972	424.5	0
246	248972	424.6	0
246	248972	424.7	0
246	248972	424.8	0
246	248972	424.9	0
246	248972	425	0
246	248972	425.1	0
246	248972	425.2	0
246	248972	425.3	0
246	248972	425.4	0
246	248972	425.5	0
246	248972	425.6	0
246	248972	425.7	0
246	248972	425.8	0
246	248972	425.9	0
246	248972	426	0
246	248972	426.1	0
246	248972	426.2	0
246	248972	426.3	0
246	248972	426.4	0
246	248972	426.5	0
246	248972	426.6	0
246	248972	426.7	0
246	248972	426.8	0
246	248972	426.9	0
246	248972	427	0
246	248972	427.1	0
246	248972	427.2	0
246	248972	427.3	0
246	248972	427.4	0
246	248972	427.5	0
246	248972	427.6	0
246	248972	427.7	0
246	248972	427.8	0
246	248972	427.9	0
246	248972	428	0
246	248972	428.1	0
246	248972	428.2	0
246	248972	428.3	0
246	248972	428.4	0
246	248972	428.5	0
246	248972	428.6	0
246	248972	428.7	0
246	248972	428.8	0
246	248972	428.9	0
246	248972	429	0
246	248972	429.1	0
246	248972	429.2	0
246	248972	429.3	0
246	248972	429.4	0
246	248972	429.5	0
246	248972	429.6	0
246	248972	429.7	0
246	248972	429.8	0
246	248972	429.9	0
246	248972	430	0
246	248972	430.1	0
246	248972	430.2	0
246	248972	430.3	0
246	248972	430.4	0
246	248972	430.5	0
246	248972	430.6	0
246	248972	430.7	0
246	248972	430.8	0
246	248972	430.9	0
246	248972	431	0
246	248972	431.1	0
246	248972	431.2	0
246	248972	431.3	0
246	248972	431.4	0
246	248972	431.5	0
246	248972	431.6	0
246	248972	431.7	0
246	248972	431.8	0
246	248972	431.9	0
246	248972	432	0
246	248972	432.1	0
246	248972	432.2	0
246	248972	432.3	0
246	248972	432.4	0
246	248972	432.5	0
246	248972	432.6	0
246	248972	432.7	0
246	248972	432.8	0
246	248972	432.9	0
246	248972	433	0
246	248972	433.1	0
246	248972	433.2	0
246	248972	433.3	0
246	248972	433.4	0
246	248972	433.5	0
246	248972	433.6	0
246	248972	433.7	0
246	248972	433.8	0
246	248972	433.9	0
246	248972	434	0
246	248972	434.1	0
246	248972	434.2	0
246	248972	434.3	0
246	248972	434.4	0
246	248972	434.5	0
246	248972	434.6	0
246	248972	434.7	0
246	248972	434.8	0
246	248972	434.9	0
246	248972	435	0
246	248972	435.1	0
246	248972	435.2	0
246	248972	435.3	0
246	248972	435.4	0
246	248972	435.5	0
246	248972	435.6	0
246	248972	435.7	0
246	248972	435.8	0
246	248972	435.9	0
246	248972	436	0
246	248972	436.1	0
246	248972	436.2	0
246	248972	436.3	0
246	248972	436.4	0
246	248972	436.5	0
246	248972	436.6	0
246	248972	436.7	0
246	248972	436.8	0
246	248972	436.9	0
246	248972	437	0
246	248972	437.1	0
246	248972	437.2	0
246	248972	437.3	0
246	248972	437.4	0
246	248972	437.5	0
246	248972	437.6	0
246	248972	437.7	0
246	248972	437.8	0
246	248972	437.9	0
246	248972	438	0
246	248972	438.1	0
246	248972	438.2	0
246	248972	438.3	0
246	248972	438.4	0
246	248972	438.5	0
246	248972	438.6	0
246	248972	438.7	0
246	248972	438.8	0
246	248972	438.9	0
246	248972	439	0
246	248972	439.1	0
246	248972	439.2	0
246	248972	439.3	0
246	248972	439.4	0
246	248972	439.5	0
246	248972	439.6	0
246	248972	439.7	0
246	248972	439.8	0
246	248972	439.9	0
246	248972	440	0
246	248972	440.1	0
246	248972	440.2	0
246	248972	440.3	0
246	248972	440.4	0
246	248972	440.5	0
246	248972	440.6	0
246	248972	440.7	0
246	248972	440.8	0
246	248972	440.9	0
246	248972	441	0
246	248972	441.1	0
246	248972	441.2	0
246	248972	441.3	0
246	248972	441.4	0
246	248972	441.5	0
246	248972	441.6	0
246	248972	441.7	0
246	248972	441.8	0
246	248972	441.9	0
246	248972	442	0
246	248972	442.1	0
246	248972	442.2	0
246	248972	442.3	0
246	248972	442.4	0
246	248972	442.5	0
246	248972	442.6	0
246	248972	442.7	0
246	248972	442.8	0
246	248972	442.9	0
246	248972	443	0
246	248972	443.1	0
246	248972	443.2	0
246	248972	443.3	0
246	248972	443.4	0
246	248972	443.5	0
246	248972	443.6	0
246	248972	443.7	0
246	248972	443.8	0
246	248972	443.9	0
246	248972	444	0
246	248972	444.1	0
246	248972	444.2	0
246	248972	444.3	0
246	248972	444.4	0
246	248972	444.5	0
246	248972	444.6	0
246	248972	444.7	0
246	248972	444.8	0
246	248972	444.9	0
246	248972	445	0
246	248972	445.1	0
246	248972	445.2	0
246	248972	445.3	0
246	248972	445.4	0
246	248972	445.5	0
246	248972	445.6	0
246	248972	445.7	0
246	248972	445.8	0
246	248972	445.9	0
246	248972	446	0
246	248972	446.1	0
246	248972	446.2	0
246	248972	446.3	0
246	248972	446.4	0
246	248972	446.5	0
246	248972	446.6	0
246	248972	446.7	0
246	248972	446.8	0
246	248972	446.9	0
246	248972	447	0
246	248972	447.1	0
246	248972	447.2	0
246	248972	447.3	0
246	248972	447.4	0
246	248972	447.5	0
246	248972	447.6	0
246	248972	447.7	0
246	248972	447.8	0
246	248972	447.9	0
246	248972	448	0
246	248972	448.1	0
246	248972	448.2	0
246	248972	448.3	0
246	248972	448.4	0
246	248972	448.5	0
246	248972	448.6	0
246	248972	448.7	0
246	248972	448.8	0
246	248972	448.9	0
246	248972	449	0
246	248972	449.1	0
246	248972	449.2	0
246	248972	449.3	0
246	248972	449.4	0
246	248972	449.5	0
246	248972	449.6	0
246	248972	449.7	0
246	248972	449.8	0
246	248972	449.9	0
246	248972	450	0
246	248972	450.1	0
246	248972	450.2	0
246	248972	450.3	0
246	248972	450.4	0
246	248972	450.5	0
246	248972	450.6	0
246	248972	450.7	0
246	248972	450.8	0
246	248972	450.9	0
246	248972	451	0
246	248972	451.1	0
246	248972	451.2	0
246	248972	451.3	0
246	248972	451.4	0
246	248972	451.5	0
246	248972	451.6	0
246	248972	451.7	0
246	248972	451.8	0
246	248972	451.9	0
246	248972	452	0
246	248972	452.1	0
246	248972	452.2	0
246	248972	452.3	0
246	248972	452.4	0
246	248972	452.5	0
246	248972	452.6	0
246	248972	452.7	0
246	248972	452.8	0
246	248972	452.9	0
246	248972	453	0
246	248972	453.1	0
246	248972	453.2	0
246	248972	453.3	0
246	248972	453.4	0
246	248972	453.5	0
246	248972	453.6	0
246	248972	453.7	0
246	248972	453.8	0
246	248972	453.9	0
246	248972	454	0
246	248972	454.1	0
246	248972	454.2	0
246	248972	454.3	0
246	248972	454.4	0
246	248972	454.5	0
246	248972	454.6	0
246	248972	454.7	0
246	248972	454.8	0
246	248972	454.9	0
246	248972	455	0
246	248972	455.1	0
246	248972	455.2	0
246	248972	455.3	0
246	248972	455.4	0
246	248972	455.5	0
246	248972	455.6	0
246	248972	455.7	0
246	248972	455.8	0
246	248972	455.9	0
246	248972	456	0
246	248972	456.1	0
246	248972	456.2	0
246	248972	456.3	0
246	248972	456.4	0
246	248972	456.5	0
246	248972	456.6	0
246	248972	456.7	0
246	248972	456.8	0
246	248972	456.9	0
246	248972	457	0
246	248972	457.1	0
246	248972	457.2	0
246	248972	457.3	0
246	248972	457.4	0
246	248972	457.5	0
246	248972	457.6	0
246	248972	457.7	0
246	248972	457.8	0
246	248972	457.9	0
246	248972	458	0
246	248972	458.1	0
246	248972	458.2	0
246	248972	458.3	0
246	248972	458.4	0
246	248972	458.5	0
246	248972	458.6	0
246	248972	458.7	0
246	248972	458.8	0
246	248972	458.9	0
246	248972	459	0
246	248972	459.1	0
246	248972	459.2	0
246	248972	459.3	0
246	248972	459.4	0
246	248972	459.5	0
246	248972	459.6	0
246	248972	459.7	0
246	248972	459.8	0
246	248972	459.9	0
246	248972	460	0
246	248972	460.1	0
246	248972	460.2	0
246	248972	460.3	0
246	248972	460.4	0
246	248972	460.5	0
246	248972	460.6	0
246	248972	460.7	0
246	248972	460.8	0
246	248972	460.9	0
246	248972	461	0
246	248972	461.1	0
246	248972	461.2	0
246	248972	461.3	0
246	248972	461.4	0
246	248972	461.5	0
246	248972	461.6	0
246	248972	461.7	0
246	248972	461.8	0
246	248972	461.9	0
246	248972	462	0
246	248972	462.1	0
246	248972	462.2	0
246	248972	462.3	0
246	248972	462.4	0
246	248972	462.5	0
246	248972	462.6	0
246	248972	462.7	0
246	248972	462.8	0
246	248972	462.9	0
246	248972	463	0
246	248972	463.1	0
246	248972	463.2	0
246	248972	463.3	0
246	248972	463.4	0
246	248972	463.5	0
246	248972	463.6	0
246	248972	463.7	0
246	248972	463.8	0
246	248972	463.9	0
246	248972	464	0
246	248972	464.1	0
246	248972	464.2	0
246	248972	464.3	0
246	248972	464.4	0
246	248972	464.5	0
246	248972	464.6	0
246	248972	464.7	0
246	248972	464.8	0
246	248972	464.9	0
246	248972	465	0
246	248972	465.1	0
246	248972	465.2	0
246	248972	465.3	0
246	248972	465.4	0
246	248972	465.5	0
246	248972	465.6	0
246	248972	465.7	0
246	248972	465.8	0
246	248972	465.9	0
246	248972	466	0
246	248972	466.1	0
246	248972	466.2	0
246	248972	466.3	0
246	248972	466.4	0
246	248972	466.5	0
246	248972	466.6	0
246	248972	466.7	0
246	248972	466.8	0
246	248972	466.9	0
246	248972	467	0
246	248972	467.1	0
246	248972	467.2	0
246	248972	467.3	0
246	248972	467.4	0
246	248972	467.5	0
246	248972	467.6	0
246	248972	467.7	0
246	248972	467.8	0
246	248972	467.9	0
246	248972	468	0
246	248972	468.1	0
246	248972	468.2	0
246	248972	468.3	0
246	248972	468.4	0
246	248972	468.5	0
246	248972	468.6	0
246	248972	468.7	0
246	248972	468.8	0
246	248972	468.9	0
246	248972	469	0
246	248972	469.1	0
246	248972	469.2	0
246	248972	469.3	0
246	248972	469.4	0
246	248972	469.5	0
246	248972	469.6	0
246	248972	469.7	0
246	248972	469.8	0
246	248972	469.9	0
246	248972	470	0
246	248972	470.1	0
246	248972	470.2	0
246	248972	470.3	0
246	248972	470.4	0
246	248972	470.5	0
246	248972	470.6	0
246	248972	470.7	0
246	248972	470.8	0
246	248972	470.9	0
246	248972	471	0
246	248972	471.1	0
246	248972	471.2	0
246	248972	471.3	0
246	248972	471.4	0
246	248972	471.5	0
246	248972	471.6	0
246	248972	471.7	0
246	248972	471.8	0
246	248972	471.9	0
246	248972	472	0
246	248972	472.1	0
246	248972	472.2	0
246	248972	472.3	0
246	248972	472.4	0
246	248972	472.5	0
246	248972	472.6	0
246	248972	472.7	0
246	248972	472.8	0
246	248972	472.9	0
246	248972	473	0
246	248972	473.1	0
246	248972	473.2	0
246	248972	473.3	0
246	248972	473.4	0
246	248972	473.5	0
246	248972	473.6	0
246	248972	473.7	0
246	248972	473.8	0
246	248972	473.9	0
246	248972	474	0
246	248972	474.1	0
246	248972	474.2	0
246	248972	474.3	0
246	248972	474.4	0
246	248972	474.5	0
246	248972	474.6	0
246	248972	474.7	0
246	248972	474.8	0
246	248972	474.9	0
246	248972	475	0
246	248972	475.1	0
246	248972	475.2	0
246	248972	475.3	0
246	248972	475.4	0
246	248972	475.5	0
246	248972	475.6	0
246	248972	475.7	0
246	248972	475.8	0
246	248972	475.9	0
246	248972	476	0
246	248972	476.1	0
246	248972	476.2	0
246	248972	476.3	0
246	248972	476.4	0
246	248972	476.5	0
246	248972	476.6	0
246	248972	476.7	0
246	248972	476.8	0
246	248972	476.9	0
246	248972	477	0
246	248972	477.1	0
246	248972	477.2	0
246	248972	477.3	0
246	248972	477.4	0
246	248972	477.5	0
246	248972	477.6	0
246	248972	477.7	0
246	248972	477.8	0
246	248972	477.9	0
246	248972	478	0
246	248972	478.1	0
246	248972	478.2	0
246	248972	478.3	0
246	248972	478.4	0
246	248972	478.5	0
246	248972	478.6	0
246	248972	478.7	0
246	248972	478.8	0
246	248972	478.9	0
246	248972	479	0
246	248972	479.1	0
246	248972	479.2	0
246	248972	479.3	0
246	248972	479.4	0
246	248972	479.5	0
246	248972	479.6	0
246	248972	479.7	0
246	248972	479.8	0
246	248972	479.9	0
246	248972	480	0
246	248972	480.1	0
246	248972	480.2	0
246	248972	480.3	0
246	248972	480.4	0
246	248972	480.5	0
246	248972	480.6	0
246	248972	480.7	0
246	248972	480.8	0
246	248972	480.9	0
246	248972	481	0
246	248972	481.1	0
246	248972	481.2	0
246	248972	481.3	0
246	248972	481.4	0
246	248972	481.5	0
246	248972	481.6	0
246	248972	481.7	0
246	248972	481.8	0
246	248972	481.9	0
246	248972	482	0
246	248972	482.1	0
246	248972	482.2	0
246	248972	482.3	0
246	248972	482.4	0
246	248972	482.5	0
246	248972	482.6	0
246	248972	482.7	0
246	248972	482.8	0
246	248972	482.9	0
246	248972	483	0
246	248972	483.1	0
246	248972	483.2	0
246	248972	483.3	0
246	248972	483.4	0
246	248972	483.5	0
246	248972	483.6	0
246	248972	483.7	0
246	248972	483.8	0
246	248972	483.9	0
246	248972	484	0
246	248972	484.1	0
246	248972	484.2	0
246	248972	484.3	0
246	248972	484.4	0
246	248972	484.5	0
246	248972	484.6	0
246	248972	484.7	0
246	248972	484.8	0
246	248972	484.9	0
246	248972	485	0
246	248972	485.1	0
246	248972	485.2	0
246	248972	485.3	0
246	248972	485.4	0
246	248972	485.5	0
246	248972	485.6	0
246	248972	485.7	0
246	248972	485.8	0
246	248972	485.9	0
246	248972	486	0
246	248972	486.1	0
246	248972	486.2	0
246	248972	486.3	0
246	248972	486.4	0
246	248972	486.5	0
246	248972	486.6	0
246	248972	486.7	0
246	248972	486.8	0
246	248972	486.9	0
246	248972	487	0
246	248972	487.1	0
246	248972	487.2	0
246	248972	487.3	0
246	248972	487.4	0
246	248972	487.5	0
246	248972	487.6	0
246	248972	487.7	0
246	248972	487.8	0
246	248972	487.9	0
246	248972	488	0
246	248972	488.1	0
246	248972	488.2	0
246	248972	488.3	0
246	248972	488.4	0
246	248972	488.5	0
246	248972	488.6	0
246	248972	488.7	0
246	248972	488.8	0
246	248972	488.9	0
246	248972	489	0
246	248972	489.1	0
246	248972	489.2	0
246	248972	489.3	0
246	248972	489.4	0
246	248972	489.5	0
246	248972	489.6	0
246	248972	489.7	0
246	248972	489.8	0
246	248972	489.9	0
246	248972	490	0
246	248972	490.1	0
246	248972	490.2	0
246	248972	490.3	0
246	248972	490.4	0
246	248972	490.5	0
246	248972	490.6	0
246	248972	490.7	0
246	248972	490.8	0
246	248972	490.9	0
246	248972	491	0
246	248972	491.1	0
246	248972	491.2	0
246	248972	491.3	0
246	248972	491.4	0
246	248972	491.5	0
246	248972	491.6	0
246	248972	491.7	0
246	248972	491.8	0
246	248972	491.9	0
246	248972	492	0
246	248972	492.1	0
246	248972	492.2	0
246	248972	492.3	0
246	248972	492.4	0
246	248972	492.5	0
246	248972	492.6	0
246	248972	492.7	0
246	248972	492.8	0
246	248972	492.9	0
246	248972	493	0
246	248972	493.1	0
246	248972	493.2	0
246	248972	493.3	0
246	248972	493.4	0
246	248972	493.5	0
246	248972	493.6	0
246	248972	493.7	0
246	248972	493.8	0
246	248972	493.9	0
246	248972	494	0
246	248972	494.1	0
246	248972	494.2	0
246	248972	494.3	0
246	248972	494.4	0
246	248972	494.5	0
246	248972	494.6	0
246	248972	494.7	0
246	248972	494.8	0
246	248972	494.9	0
246	248972	495	0
246	248972	495.1	0
246	248972	495.2	0
246	248972	495.3	0
246	248972	495.4	0
246	248972	495.5	0
246	248972	495.6	0
246	248972	495.7	0
246	248972	495.8	0
246	248972	495.9	0
246	248972	496	0
246	248972	496.1	0
246	248972	496.2	0
246	248972	496.3	0
246	248972	496.4	0
246	248972	496.5	0
246	248972	496.6	0
246	248972	496.7	0
246	248972	496.8	0
246	248972	496.9	0
246	248972	497	0
246	248972	497.1	0
246	248972	497.2	0
246	248972	497.3	0
246	248972	497.4	0
246	248972	497.5	0
246	248972	497.6	0
246	248972	497.7	0
246	248972	497.8	0
246	248972	497.9	0
246	248972	498	0
246	248972	498.1	0
246	248972	498.2	0
246	248972	498.3	0
246	248972	498.4	0
246	248972	498.5	0
246	248972	498.6	0
246	248972	498.7	0
246	248972	498.8	0
246	248972	498.9	0
246	248972	499	0
246	248972	499.1	0
246	248972	499.2	0
246	248972	499.3	0
246	248972	499.4	0
246	248972	499.5	0
246	248972	499.6	0
246	248972	499.7	0
246	248972	499.8	0
246	248972	499.9	0
246	248972	500	0

