version 2
run FanetGrayHole-0-20220609-18:12:54-21484
attr configname FanetGrayHole
attr datetime 20220609-18:12:54
attr experiment FanetGrayHole
attr inifile omnetpp.ini
attr iterationvars ""
attr iterationvarsf ""
attr measurement ""
attr network FanetGrayHole
attr processid 21484
attr repetition 0
attr replication #0
attr resultdir results
attr runnumber 0
attr seedset 0
param *.host[0].numApps 1
param *.host[0].app[0].typename "\"UdpBasicApp\""
param *.host[0].app[0].startTime 11s
param *.host[0].app[0].destAddresses "\"host[1]\""
param *.host[0].app[0].destPort 5000
param *.host[0].app[0].messageLength 1000B
param *.host[0].app[0].sendInterval exponential(1s)
param *.host[0].app[0].packetName "\"UDPdata\""
param *.host[1].numApps 1
param *.host[1].app[0].typename "\"UdpSink\""
param *.host[1].app[0].localPort 5000
param **.wlan[*].bitrate 24Mbps
param *.configurator.addStaticRoutes false
param **.netmaskRoutes "\"\""
param **.arp.typename "\"GlobalArp\""
param *.host*.wlan[0].typename "\"AckingWirelessInterface\""
param *.host*.wlan[0].radio.transmitter.communicationRange 2000m
param *.host*.wlan[0].radio.displayCommunicationRange true
param *.visualizer.osgVisualizer.typename "\"IntegratedOsgVisualizer\""
param *.visualizer.osgVisualizer.sceneVisualizer.clearColor "\"skyblue\""
param *.visualizer.osgVisualizer.sceneVisualizer.sceneImage "\"showcases/desert\""
param *.visualizer.osgVisualizer.sceneVisualizer.sceneImageSize 5000m
param *.visualizer.osgVisualizer.sceneVisualizer.axisLength 1000m
param *.visualizer.osgVisualizer.sceneVisualizer.sceneMinX -2000m
param *.visualizer.osgVisualizer.sceneVisualizer.sceneMinY -2000m
param *.visualizer.osgVisualizer.sceneVisualizer.sceneMinZ 0m
param *.visualizer.osgVisualizer.sceneVisualizer.sceneMaxX 3000m
param *.visualizer.osgVisualizer.sceneVisualizer.sceneMaxY 3000m
param *.visualizer.osgVisualizer.sceneVisualizer.sceneMaxZ 1000m
param *.visualizer.osgVisualizer.networkNodeVisualizer.displayModuleName false
param *.visualizer.*.mobilityVisualizer.displayMobility true
param *.visualizer.*.mobilityVisualizer.displayPositions true
param *.visualizer.*.mobilityVisualizer.displayOrientations true
param *.visualizer.*.mobilityVisualizer.displayVelocities true
param *.visualizer.*.mobilityVisualizer.displayMovementTrails true
param *.visualizer.*.mobilityVisualizer.animationSpeed 1
param *.visualizer.*.packetDropVisualizer.displayPacketDrops false
param *.visualizer.*.packetDropVisualizer.labelFormat "\"%n/reason: %r\""
param *.visualizer.*.packetDropVisualizer.fadeOutTime 10s
param **.constraintAreaMinX 0m
param **.constraintAreaMinY 0m
param **.constraintAreaMinZ 40m
param **.constraintAreaMaxX 2500m
param **.constraintAreaMaxY 2000m
param **.constraintAreaMaxZ 200m
param *.visualizer.*.mediumVisualizer.signalPropagationAnimationSpeed 500/3e8
param *.visualizer.*.mediumVisualizer.signalTransmissionAnimationSpeed 50000/3e8
param *.visualizer.*.mediumVisualizer.displaySignals false
param *.visualizer.*.mediumVisualizer.displayTransmissions false
param *.visualizer.*.mediumVisualizer.displayReceptions false
param *.visualizer.*.mediumVisualizer.transmissionPlacementPriority 10
param *.visualizer.*.mediumVisualizer.receptionPlacementPriority 10
param *.visualizer.*.mediumVisualizer.displaySignals false
param *.visualizer.*.mediumVisualizer.signalFadingDistance 50m
param *.visualizer.*.mediumVisualizer.signalRingSize 50m
param *.visualizer.osgVisualizer.mediumVisualizer.signalShape "\"both\""
param *.host[*].osgModel "\"3d/drone.ive.100.scale.0,0,90.rot\""
param *.host[*].mobility.typename "\"MassMobility\""
param *.host[*].mobility.changeInterval 1s
param *.host[*].mobility.initialMovementHeading "uniform(0deg, 360deg)"
param *.host[*].mobility.initialMovementElevation "uniform(-90deg, 90deg)"
param *.host[*].mobility.angleDelta uniform(-10deg,10deg)
param *.host[*].mobility.rotationAxisAngle uniform(-10deg,10deg)
param *.host[*].mobility.speed uniform(10mps,20mps)
param *.host[*].mobility.faceForward false

vector 0 FanetGrayHole.host[0].wlan[0].radio radioMode:vector ETV
attr interpolationmode sample-hold
attr source radioModeChanged
attr title "Radio mode, vector"
vector 1 FanetGrayHole.host[1].wlan[0].radio radioMode:vector ETV
attr interpolationmode sample-hold
attr source radioModeChanged
attr title "Radio mode, vector"
vector 2 FanetGrayHole.host[2].wlan[0].radio radioMode:vector ETV
attr interpolationmode sample-hold
attr source radioModeChanged
attr title "Radio mode, vector"
vector 3 FanetGrayHole.host[0].wlan[0].radio receptionState:vector ETV
attr interpolationmode sample-hold
attr source receptionStateChanged
attr title "Radio reception state, vector"
vector 4 FanetGrayHole.host[0].wlan[0].radio transmissionState:vector ETV
attr interpolationmode sample-hold
attr source transmissionStateChanged
attr title "Radio transmission state, vector"
vector 5 FanetGrayHole.host[1].wlan[0].radio receptionState:vector ETV
attr interpolationmode sample-hold
attr source receptionStateChanged
attr title "Radio reception state, vector"
vector 6 FanetGrayHole.host[1].wlan[0].radio transmissionState:vector ETV
attr interpolationmode sample-hold
attr source transmissionStateChanged
attr title "Radio transmission state, vector"
vector 7 FanetGrayHole.host[2].wlan[0].radio receptionState:vector ETV
attr interpolationmode sample-hold
attr source receptionStateChanged
attr title "Radio reception state, vector"
vector 8 FanetGrayHole.host[2].wlan[0].radio transmissionState:vector ETV
attr interpolationmode sample-hold
attr source transmissionStateChanged
attr title "Radio transmission state, vector"
vector 9 FanetGrayHole.host[0].wlan[0].mac rcvdPkFromHl:vector(packetBytes) ETV
attr interpolationmode none
attr source packetReceivedFromUpper
attr title "packets received from higher layer, vector(packetBytes)"
vector 10 FanetGrayHole.host[0].wlan[0].mac.queue packetPushed:vector(packetBytes) ETV
attr interpolationmode none
attr title "packet pushed, vector(packetBytes)"
vector 11 FanetGrayHole.host[0].wlan[0].mac.queue queueLength:vector ETV
attr interpolationmode sample-hold
attr source "count(packetPushed) - count(packetPopped) - count(packetRemoved) - count(packetDropped)"
attr title "queue length, vector"
vector 12 FanetGrayHole.host[0].wlan[0].mac.queue packetPopped:vector(packetBytes) ETV
attr interpolationmode none
attr title "packet popped, vector(packetBytes)"
vector 13 FanetGrayHole.host[0].wlan[0].mac.queue queueingTime:vector ETV
attr interpolationmode none
attr source queueingTime(packetPopped)
attr title "queueing times, vector"
attr unit s
vector 14 FanetGrayHole.host[0].wlan[0].mac sentDownPk:vector(packetBytes) ETV
attr interpolationmode none
attr source packetSentToLower
attr title "packets sent to lower layer, vector(packetBytes)"
vector 15 FanetGrayHole.host[1].wlan[0].mac rcvdPkFromLl:vector(packetBytes) ETV
attr interpolationmode none
attr source packetReceivedFromLower
attr title "packets received from lower layer, vector(packetBytes)"
vector 16 FanetGrayHole.host[1].wlan[0].mac passedUpPk:vector(packetBytes) ETV
attr interpolationmode none
attr source packetSentToUpper
attr title "packets passed to higher layer, vector(packetBytes)"
vector 17 FanetGrayHole.host[2].wlan[0].mac rcvdPkFromLl:vector(packetBytes) ETV
attr interpolationmode none
attr source packetReceivedFromLower
attr title "packets received from lower layer, vector(packetBytes)"
vector 18 FanetGrayHole.host[2].wlan[0].mac passedUpPk:vector(packetBytes) ETV
attr interpolationmode none
attr source packetSentToUpper
attr title "packets passed to higher layer, vector(packetBytes)"
vector 19 FanetGrayHole.host[1].wlan[0].mac rcvdPkFromHl:vector(packetBytes) ETV
attr interpolationmode none
attr source packetReceivedFromUpper
attr title "packets received from higher layer, vector(packetBytes)"
vector 20 FanetGrayHole.host[1].wlan[0].mac.queue packetPushed:vector(packetBytes) ETV
attr interpolationmode none
attr title "packet pushed, vector(packetBytes)"
vector 21 FanetGrayHole.host[1].wlan[0].mac.queue queueLength:vector ETV
attr interpolationmode sample-hold
attr source "count(packetPushed) - count(packetPopped) - count(packetRemoved) - count(packetDropped)"
attr title "queue length, vector"
vector 22 FanetGrayHole.host[1].wlan[0].mac.queue packetPopped:vector(packetBytes) ETV
attr interpolationmode none
attr title "packet popped, vector(packetBytes)"
vector 23 FanetGrayHole.host[1].wlan[0].mac.queue queueingTime:vector ETV
attr interpolationmode none
attr source queueingTime(packetPopped)
attr title "queueing times, vector"
attr unit s
vector 24 FanetGrayHole.host[1].wlan[0].mac sentDownPk:vector(packetBytes) ETV
attr interpolationmode none
attr source packetSentToLower
attr title "packets sent to lower layer, vector(packetBytes)"
vector 25 FanetGrayHole.host[0].wlan[0].mac rcvdPkFromLl:vector(packetBytes) ETV
attr interpolationmode none
attr source packetReceivedFromLower
attr title "packets received from lower layer, vector(packetBytes)"
vector 26 FanetGrayHole.host[0].wlan[0].mac passedUpPk:vector(packetBytes) ETV
attr interpolationmode none
attr source packetSentToUpper
attr title "packets passed to higher layer, vector(packetBytes)"
vector 27 FanetGrayHole.host[0].app[0] packetSent:vector(packetBytes) ETV
attr interpolationmode none
attr source packetSent
attr title "packets sent, vector(packetBytes)"
vector 28 FanetGrayHole.host[0].udp packetSent:vector(packetBytes) ETV
attr interpolationmode none
attr source packetSent
attr title "packets sent, vector(packetBytes)"
vector 29 FanetGrayHole.host[1].udp packetReceived:vector(packetBytes) ETV
attr interpolationmode none
attr source packetReceived
attr title "packets received, vector(packetBytes)"
vector 30 FanetGrayHole.host[1].udp passedUpPk:vector(count) ETV
attr interpolationmode none
attr source packetSentToUpper
attr title "packets passed up, vector(count)"
vector 31 FanetGrayHole.host[1].app[0] packetReceived:vector(packetBytes) ETV
attr interpolationmode none
attr source packetReceived
attr title "packets received, vector(packetBytes)"
vector 32 FanetGrayHole.host[1].app[0] throughput:vector ETV
attr source throughput(packetReceived)
attr title "throughput, vector"
attr unit bps
vector 33 FanetGrayHole.host[1].app[0] endToEndDelay:vector ETV
attr interpolationmode none
attr source dataAge(packetReceived)
attr title "end-to-end delay, vector"
attr unit s
vector 34 FanetGrayHole.host[1].app[0] rcvdPkSeqNo:vector ETV
attr interpolationmode none
attr source appPkSeqNo(packetReceived)
attr title "received packet sequence number, vector"
vector 35 FanetGrayHole.host[2].wlan[0].mac packetDropNotAddressedToUs:vector(packetBytes) ETV
attr interpolationmode none
attr source packetDropReasonIsNotAddressedToUs(packetDropped)
attr title "packet drop: not addressed to us, vector(packetBytes)"
vector 36 FanetGrayHole.host[2].wlan[0].mac rcvdPkFromHl:vector(packetBytes) ETV
attr interpolationmode none
attr source packetReceivedFromUpper
attr title "packets received from higher layer, vector(packetBytes)"
vector 37 FanetGrayHole.host[2].wlan[0].mac.queue packetPushed:vector(packetBytes) ETV
attr interpolationmode none
attr title "packet pushed, vector(packetBytes)"
vector 38 FanetGrayHole.host[2].wlan[0].mac.queue queueLength:vector ETV
attr interpolationmode sample-hold
attr source "count(packetPushed) - count(packetPopped) - count(packetRemoved) - count(packetDropped)"
attr title "queue length, vector"
vector 39 FanetGrayHole.host[2].wlan[0].mac.queue packetPopped:vector(packetBytes) ETV
attr interpolationmode none
attr title "packet popped, vector(packetBytes)"
vector 40 FanetGrayHole.host[2].wlan[0].mac.queue queueingTime:vector ETV
attr interpolationmode none
attr source queueingTime(packetPopped)
attr title "queueing times, vector"
attr unit s
vector 41 FanetGrayHole.host[2].wlan[0].mac sentDownPk:vector(packetBytes) ETV
attr interpolationmode none
attr source packetSentToLower
attr title "packets sent to lower layer, vector(packetBytes)"
vector 42 FanetGrayHole.host[0].app[0] throughput:vector ETV
attr source throughput(packetReceived)
attr title "throughput, vector"
attr unit bps
0	0	0	0
0	0	0	0
0	0	0	4
1	0	0	0
1	0	0	0
1	0	0	4
2	0	0	0
2	0	0	0
2	0	0	4
3	0	0	1
3	351	10.928449521122	3
3	354	10.928472187789	1
3	437	12.151898336829	3
3	443	12.151921003496	1
3	954	21.956082955477	3
3	957	21.956105622144	1
3	1013	23.387535506852	3
3	1019	23.387558173519	1
3	1317	29.791043300957	3
3	1323	29.791065967624	1
3	1594	34.737650335136	3
3	1597	34.737673001803	1
3	1970	41.997369779935	3
3	1973	41.997392446602	1
3	2103	44.299153753748	3
3	2106	44.299176420415	1
3	2460	51.367689277112	3
3	2463	51.367711943779	1
3	2643	55.830554019	3
3	2646	55.830576685667	1
3	3001	62.443649018162	3
3	3004	62.443671684829	1
3	3186	65.957182039589	3
3	3189	65.957204706256	1
3	3339	69.409472337569	3
3	3342	69.409495004236	1
3	3745	77.69377826945	3
3	3748	77.693800936117	1
3	4054	83.191406692431	3
3	4057	83.191429359098	1
3	4167	85.873609984849	3
3	4170	85.873632651516	1
3	4529	93.65079556398	3
3	4532	93.650818230647	1
3	4570	93.950871645166	3
3	4573	93.950894311833	1
3	4813	98.851871032436	3
3	4816	98.851893699103	1
3	4975	102.648952662045	3
3	4978	102.648975328712	1
3	5252	108.18475187899	3
3	5255	108.184774545657	1
3	5462	113.569372094217	3
3	5465	113.569394760884	1
3	5788	120.179544900625	3
3	5791	120.179567567292	1
3	5943	122.687573647556	3
3	5946	122.687596314223	1
3	6307	127.879505699251	3
3	6310	127.879528365918	1
3	6404	130.511607396021	3
3	6407	130.511630062688	1
3	6842	138.721579554426	3
3	6845	138.721602221093	1
3	6879	139.400538275608	3
3	6882	139.400560942275	1
3	7181	145.216062298979	3
3	7184	145.216084965646	1
3	7517	151.615787861456	3
3	7520	151.615810528123	1
3	7635	153.447015808056	3
3	7638	153.447038474723	1
3	7862	156.73292856154	3
3	7865	156.732951228207	1
3	8028	160.163312720251	3
3	8031	160.163335386918	1
3	8357	166.810254650134	3
3	8360	166.810277316801	1
3	8595	171.17412583182	3
3	8598	171.174148498487	1
3	8870	177.709354856425	3
3	8873	177.709377523092	1
3	9070	181.869861192705	3
3	9073	181.869883859372	1
3	9134	183.562310740546	3
3	9137	183.562333407213	1
3	9504	190.647379586747	3
3	9507	190.647402253414	1
3	9752	194.738890123583	3
3	9755	194.73891279025	1
3	9938	197.816349506954	3
3	9941	197.816372173621	1
3	10169	202.985720034546	3
3	10172	202.985742701213	1
3	10249	204.672708911443	3
3	10252	204.67273157811	1
3	10871	217.459425613986	3
3	10874	217.459448280653	1
3	10930	218.4756849763	3
3	10933	218.475707642967	1
3	11293	224.20851416398	3
3	11296	224.208536830647	1
3	11450	227.436281969955	3
3	11453	227.436304636622	1
3	11794	234.730438784036	3
3	11797	234.730461450703	1
3	11841	235.357757127532	3
3	11844	235.357779794199	1
3	12170	242.174069044268	3
3	12173	242.174091710935	1
3	12195	242.547739871112	3
3	12198	242.547762537779	1
3	12681	252.470422364235	3
3	12684	252.470445030902	1
3	12887	256.667256827359	3
3	12890	256.667279494026	1
3	13320	265.772178015807	3
3	13323	265.772200682474	1
3	13400	267.320745189406	3
3	13403	267.320767856073	1
3	14091	278.660904973831	3
3	14094	278.660927640498	1
3	14181	280.06121854963	3
3	14184	280.061241216297	1
3	14403	284.214647808729	3
3	14406	284.214670475396	1
3	14661	289.646364089211	3
3	14664	289.646386755878	1
3	14751	291.026156981351	3
3	14754	291.026179648018	1
3	15098	296.724746742799	3
3	15101	296.724769409466	1
3	15413	302.420439953193	3
3	15416	302.42046261986	1
3	15683	306.608846807829	3
3	15686	306.608869474496	1
3	16030	313.915070193632	3
3	16033	313.915092860299	1
3	16353	320.429261088923	3
3	16356	320.42928375559	1
3	16437	322.192274089758	3
3	16443	322.192296756425	1
3	16801	330.01064999882	3
3	16804	330.010672665487	1
3	17055	335.860660703745	3
3	17058	335.860683370412	1
3	17099	336.72948746533	3
3	17105	336.729510131997	1
3	17494	345.100983181787	3
3	17497	345.101005848454	1
3	17608	346.203269771832	3
3	17614	346.203292438499	1
3	17913	352.18804941336	3
3	17919	352.188072080027	1
3	18265	358.554560118597	3
3	18271	358.554582785264	1
3	18448	361.476005970313	3
3	18454	361.47602863698	1
3	18766	367.297792295489	3
3	18772	367.297814962156	1
3	19062	372.876247027494	3
3	19068	372.876269694161	1
3	19232	377.47087781403	3
3	19238	377.470900480697	1
3	19604	386.162816091259	3
3	19607	386.162838757926	1
3	19630	386.446212932875	3
3	19636	386.446235599542	1
3	20140	398.13423229351	3
3	20143	398.134254960177	1
3	20306	400.495696439218	3
3	20312	400.495719105885	1
3	20499	404.272398697503	3
3	20502	404.27242136417	1
3	20835	412.296851637447	3
3	20838	412.296874304114	1
3	21077	417.664290089096	3
3	21080	417.664312755763	1
3	21285	422.49327965986	3
3	21288	422.493302326527	1
3	21410	423.982810550474	3
3	21413	423.982833217141	1
3	21654	429.98313116174	3
3	21657	429.983153828407	1
3	21685	430.421219879297	3
3	21688	430.421242545964	1
3	21922	435.176137301403	3
3	21925	435.17615996807	1
3	22189	440.89006891441	3
3	22192	440.890091581077	1
3	22606	449.933654827912	3
3	22609	449.933677494579	1
3	22744	452.976156919867	3
3	22747	452.976179586534	1
3	22959	457.470080418117	3
3	22962	457.470103084784	1
3	23039	459.022435460461	3
3	23042	459.022458127128	1
3	23409	466.071672213145	3
3	23412	466.071694879812	1
3	23747	471.917155849073	3
3	23753	471.91717851574	1
3	23846	474.798463259631	3
3	23849	474.798485926298	1
3	24072	479.014655647062	3
3	24078	479.014678313729	1
3	24398	486.707401112654	3
3	24401	486.707423779321	1
3	24467	487.903330164961	3
3	24473	487.903352831628	1
3	24663	491.876117783111	3
3	24666	491.876140449778	1
3	25000	499.868153982842	3
3	25006	499.868176649509	1
4	0	0	1
4	319	10.488135023043	2
4	322	10.48815768971	1
4	371	11	2
4	374	11.000365333333	1
4	408	11.787201139982	2
4	411	11.787566473315	1
4	458	12.338249626652	2
4	461	12.338614959985	1
4	489	12.823377790374	2
4	492	12.823743123707	1
4	514	13.176536929512	2
4	517	13.176902262845	1
4	533	13.234921598605	2
4	536	13.235286931938	1
4	558	13.553277739447	2
4	561	13.55364307278	1
4	595	14.202724087698	2
4	598	14.203089421031	1
4	659	15.874935288023	2
4	662	15.875300621356	1
4	696	16.528817855244	2
4	699	16.529183188577	1
4	727	17.02768986426	2
4	730	17.028055197593	1
4	797	18.836059128535	2
4	800	18.836424461868	1
4	825	19.247637124778	2
4	828	19.248002458111	1
4	871	20.292249633086	2
4	874	20.292614966419	1
4	902	20.751497770341	2
4	905	20.751863103674	1
4	1046	23.901667699017	2
4	1049	23.90203303235	1
4	1061	23.930792463944	2
4	1064	23.930815130611	1
4	1138	25.942559914929	2
4	1141	25.942925248262	1
4	1202	27.547799471991	2
4	1205	27.548164805324	1
4	1236	28.166728931618	2
4	1239	28.167094264951	1
4	1297	29.683264905608	2
4	1300	29.683630238941	1
4	1335	29.809139315046	2
4	1338	29.809504648379	1
4	1375	30.681460510088	2
4	1378	30.681825843421	1
4	1415	31.452295168555	2
4	1418	31.452660501888	1
4	1473	32.873659848649	2
4	1476	32.874025181982	1
4	1492	32.985606009282	2
4	1495	32.985971342615	1
4	1529	33.627300711313	2
4	1532	33.627666044646	1
4	1551	33.833503993343	2
4	1554	33.833869326676	1
4	1622	35.168794177967	2
4	1625	35.1691595113	1
4	1665	36.009128883579	2
4	1668	36.009494216912	1
4	1681	36.02809745278	2
4	1684	36.028462786113	1
4	1724	36.989478391846	2
4	1727	36.989843725179	1
4	1770	37.936475069021	2
4	1773	37.936840402354	1
4	1809	38.716975892895	2
4	1812	38.716998559562	1
4	1829	38.896023046389	2
4	1832	38.896388379722	1
4	1917	41.224936420603	2
4	1920	41.225301753936	1
4	1951	41.822682497421	2
4	1954	41.823047830754	1
4	2010	42.772177080918	2
4	2013	42.772542414251	1
4	2062	43.968284880375	2
4	2065	43.968650213708	1
4	2081	44.030400170841	2
4	2084	44.030765504174	1
4	2146	45.129312638392	2
4	2149	45.129677971725	1
4	2168	45.31673870441	2
4	2171	45.317104037743	1
4	2196	45.760142733031	2
4	2199	45.760508066364	1
4	2254	47.149185422822	2
4	2257	47.149550756155	1
4	2281	47.58186567342	2
4	2284	47.581888340087	1
4	2313	48.085246982593	2
4	2316	48.085612315926	1
4	2356	48.929674776121	2
4	2359	48.930040109454	1
4	2390	49.506999086928	2
4	2393	49.507364420261	1
4	2554	53.961495933104	2
4	2557	53.961861266437	1
4	2603	55.019322346456	2
4	2606	55.019687679789	1
4	2665	56.027341591876	2
4	2668	56.027706925209	1
4	2686	56.218973407523	2
4	2689	56.21899607419	1
4	2727	57.08608430697	2
4	2730	57.086449640303	1
4	2761	57.621148984053	2
4	2764	57.621514317386	1
4	2795	58.264929985656	2
4	2798	58.265295318989	1
4	2841	59.241794059727	2
4	2844	59.24215939306	1
4	2869	59.654295289649	2
4	2872	59.654660622982	1
4	2918	60.777463591182	2
4	2921	60.777828924515	1
4	2946	61.159019434556	2
4	2949	61.159384767889	1
4	3023	62.665654767829	2
4	3026	62.666020101162	1
4	3054	63.125668725569	2
4	3057	63.126034058902	1
4	3121	64.846000383286	2
4	3124	64.846365716619	1
4	3140	64.948145264811	2
4	3143	64.948510598144	1
4	3226	66.767964184095	2
4	3229	66.768329517428	1
4	3250	67.037476729603	2
4	3253	67.03749939627	1
4	3382	70.341552556439	2
4	3385	70.341917889772	1
4	3419	71.054136149772	2
4	3422	71.054501483105	1
4	3438	71.111463076196	2
4	3441	71.111828409529	1
4	3472	71.711409962837	2
4	3475	71.71177529617	1
4	3488	71.731600090983	2
4	3491	71.731965424316	1
4	3522	72.31447847985	2
4	3525	72.314843813183	1
4	3655	76.206048602695	2
4	3658	76.206413936028	1
4	3683	76.651468064615	2
4	3686	76.651833397948	1
4	3720	77.307114348979	2
4	3723	77.307479682312	1
4	3785	78.473987875528	2
4	3788	78.474353208861	1
4	3819	79.008872251285	2
4	3822	79.009237584618	1
4	3835	79.075169652767	2
4	3838	79.0755349861	1
4	3887	80.254359179832	2
4	3890	80.254724513165	1
4	3927	81.090456711802	2
4	3930	81.090822045135	1
4	3952	81.3988715519	2
4	3955	81.399236885233	1
4	3982	81.802071381827	2
4	3985	81.802094048494	1
4	4008	82.139630502347	2
4	4011	82.13999583568	1
4	4115	84.679935010306	2
4	4118	84.680300343639	1
4	4228	87.329190938982	2
4	4231	87.329556272315	1
4	4243	87.338591689646	2
4	4246	87.338957022979	1
4	4314	89.185919340648	2
4	4317	89.186284673981	1
4	4363	90.227699994827	2
4	4366	90.22806532816	1
4	4433	92.068982466314	2
4	4436	92.069347799647	1
4	4458	92.376500190076	2
4	4461	92.376865523409	1
4	4489	92.883700313333	2
4	4492	92.884065646666	1
4	4545	93.688497713134	2
4	4548	93.688863046467	1
4	4631	95.454238785547	2
4	4634	95.45460411888	1
4	4653	95.612580291778	2
4	4656	95.612945625111	1
4	4677	95.969300947619	2
4	4680	95.969323614286	1
4	4709	96.455663323926	2
4	4712	96.456028657259	1
4	4764	97.784421197676	2
4	4767	97.784786531009	1
4	4895	101.059564375391	2
4	4898	101.059929708724	1
4	4953	102.470588784685	2
4	4956	102.470954118018	1
4	5000	102.974932591273	2
4	5003	102.975297924606	1
4	5036	103.669380634093	2
4	5039	103.66940330076	1
4	5059	103.824153402837	2
4	5062	103.82451873617	1
4	5141	106.045660301311	2
4	5144	106.046025634644	1
4	5190	107.185268264844	2
4	5193	107.185633598177	1
4	5224	107.781647659174	2
4	5227	107.782012992507	1
4	5373	111.624654242418	2
4	5376	111.625019575751	1
4	5398	111.977674375692	2
4	5401	111.978039709025	1
4	5481	113.658596580238	2
4	5484	113.658961913571	1
4	5530	114.783878597082	2
4	5533	114.784243930415	1
4	5554	115.058591435665	2
4	5557	115.058614102332	1
4	5571	115.071289073152	2
4	5574	115.071654406485	1
4	5653	117.206119523135	2
4	5656	117.206484856468	1
4	5702	118.38550245678	2
4	5705	118.385867790113	1
4	5757	119.677411725581	2
4	5760	119.677777058914	1
4	5810	120.373211186481	2
4	5813	120.373576519814	1
4	5835	120.635268428156	2
4	5838	120.635633761489	1
4	5866	121.137579226417	2
4	5869	121.13794455975	1
4	5912	122.102032791911	2
4	5915	122.102398125244	1
4	5962	122.746137500234	2
4	5965	122.746502833567	1
4	5990	123.105064716104	2
4	5993	123.105430049437	1
4	6036	124.18438491476	2
4	6039	124.184750248093	1
4	6064	124.526984539458	2
4	6067	124.527349872791	1
4	6107	125.489359595229	2
4	6110	125.489724928562	1
4	6134	125.871320194566	2
4	6137	125.871342861233	1
4	6157	126.049320665303	2
4	6160	126.049685998636	1
4	6176	126.157867763798	2
4	6179	126.158233097131	1
4	6195	126.254790518375	2
4	6198	126.255155851708	1
4	6223	126.691818532149	2
4	6226	126.692183865482	1
4	6263	127.494370517908	2
4	6266	127.494735851241	1
4	6282	127.528573936266	2
4	6285	127.528939269599	1
4	6435	131.001109415548	2
4	6438	131.001474748881	1
4	6457	131.251190910526	2
4	6460	131.251556243859	1
4	6479	131.40348453578	2
4	6482	131.403849869113	1
4	6498	131.505805150633	2
4	6501	131.506170483966	1
4	6637	135.643614911143	2
4	6640	135.643980244476	1
4	6662	135.945180824366	2
4	6665	135.945546157699	1
4	6702	136.715257683912	2
4	6705	136.715623017245	1
4	6736	137.309331182236	2
4	6739	137.309696515569	1
4	6755	137.414213017836	2
4	6758	137.414578351169	1
4	6783	137.84855867378	2
4	6786	137.848924007113	1
4	6817	138.482021291503	2
4	6820	138.482386624836	1
4	6900	139.655842105859	2
4	6903	139.655864772526	1
4	6938	140.32175407658	2
4	6941	140.322119409913	1
4	6957	140.499079651725	2
4	6960	140.499444985058	1
4	7003	141.455046075647	2
4	7006	141.45541140898	1
4	7022	141.587229785262	2
4	7025	141.587595118595	1
4	7095	143.471158671848	2
4	7098	143.471524005181	1
4	7162	145.117877773175	2
4	7165	145.118243106508	1
4	7218	145.959758734907	2
4	7221	145.96012406824	1
4	7234	145.993545520459	2
4	7237	145.993910853792	1
4	7373	150.043392359264	2
4	7376	150.043757692597	1
4	7404	150.510664925674	2
4	7407	150.511030259007	1
4	7435	151.055522053819	2
4	7438	151.055887387152	1
4	7454	151.107434606002	2
4	7457	151.107799939335	1
4	7482	151.562346450794	2
4	7485	151.562711784127	1
4	7498	151.579114216786	2
4	7501	151.579479550119	1
4	7539	151.841443525952	2
4	7542	151.841808859285	1
4	7567	152.287696346471	2
4	7570	152.288061679804	1
4	7615	153.337102711667	2
4	7618	153.337125378334	1
4	7654	153.596994710494	2
4	7657	153.597360043827	1
4	7694	154.333125810481	2
4	7697	154.333491143814	1
4	7710	154.38899586337	2
4	7713	154.389361196703	1
4	7735	154.612135071471	2
4	7738	154.612500404804	1
4	7751	154.630830541892	2
4	7754	154.631195875225	1
4	7815	156.209243263998	2
4	7818	156.209608597331	1
4	7837	156.462748969141	2
4	7840	156.463114302474	1
4	7881	156.886406070498	2
4	7884	156.886771403831	1
4	7927	157.823544788221	2
4	7930	157.823910121554	1
4	7970	158.731508815546	2
4	7973	158.731874148879	1
4	8047	160.262340041813	2
4	8050	160.262705375146	1
4	8093	161.233822199908	2
4	8096	161.234187533241	1
4	8133	162.094745836589	2
4	8136	162.095111169922	1
4	8158	162.366413906931	2
4	8161	162.366779240264	1
4	8255	165.087762162844	2
4	8258	165.088127496177	1
4	8294	165.837095188909	2
4	8297	165.837117855576	1
4	8317	166.039591870386	2
4	8320	166.039957203719	1
4	8406	168.036763837876	2
4	8409	168.037129171209	1
4	8461	169.346549209238	2
4	8464	169.346914542571	1
4	8489	169.720435705141	2
4	8492	169.720801038474	1
4	8520	170.228300827828	2
4	8523	170.228666161161	1
4	8542	170.463825401247	2
4	8545	170.46419073458	1
4	8564	170.66985744973	2
4	8567	170.670222783063	1
4	8680	173.558933041629	2
4	8683	173.559298374962	1
4	8714	174.160612028153	2
4	8717	174.160977361486	1
4	8834	177.628001370468	2
4	8837	177.628024037135	1
4	8851	177.67509070869	2
4	8854	177.675456042023	1
4	8889	177.968598360613	2
4	8892	177.968963693946	1
4	8908	178.026670722729	2
4	8911	178.027036056062	1
4	8942	178.695784446419	2
4	8945	178.696149779752	1
4	9024	180.82445454095	2
4	9027	180.824819874283	1
4	9177	184.571149154775	2
4	9180	184.571514488108	1
4	9204	184.902147662361	2
4	9207	184.902170329028	1
4	9233	185.353124875651	2
4	9236	185.353490208984	1
4	9252	185.422742546725	2
4	9255	185.423107880058	1
4	9301	186.560281052266	2
4	9304	186.560646385599	1
4	9335	187.164862270601	2
4	9338	187.165227603934	1
4	9375	187.933982071697	2
4	9378	187.93434740503	1
4	9456	190.148934950122	2
4	9459	190.148957616789	1
4	9476	190.203822087481	2
4	9479	190.204187420814	1
4	9523	190.837752106875	2
4	9526	190.838117440208	1
4	9572	191.925656540489	2
4	9575	191.926021873822	1
4	9597	192.231261442303	2
4	9600	192.231626775636	1
4	9613	192.252128660913	2
4	9616	192.252493994246	1
4	9671	193.672512116498	2
4	9674	193.672877449831	1
4	9699	194.058199810543	2
4	9702	194.058565143876	1
4	9730	194.541838198033	2
4	9733	194.542203531366	1
4	9786	195.429340126517	2
4	9789	195.42970545985	1
4	9823	196.162707799685	2
4	9830	196.163073133018	1
4	9833	196.163077013805	2
4	9841	196.163442347138	1
4	9867	196.536526445397	2
4	9870	196.53689177873	1
4	9898	197.090697274445	2
4	9901	197.091062607778	1
4	9993	199.25646095532	2
4	9996	199.256826288653	1
4	10099	202.295904278291	2
4	10102	202.295926944958	1
4	10119	202.309645624913	2
4	10122	202.310010958246	1
4	10153	202.970148704662	2
4	10156	202.970514037995	1
4	10230	204.524811642471	2
4	10233	204.525176975804	1
4	10299	205.837319635437	2
4	10302	205.83768496877	1
4	10327	206.213748986958	2
4	10330	206.214114320291	1
4	10436	209.370844528374	2
4	10439	209.371209861707	1
4	10473	210.009033133967	2
4	10476	210.0093984673	1
4	10525	211.252383911916	2
4	10528	211.252749245249	1
4	10547	211.419258553149	2
4	10550	211.419623886482	1
4	10574	211.857202001849	2
4	10577	211.857224668516	1
4	10618	212.730230921309	2
4	10621	212.730596254642	1
4	10652	213.353060231074	2
4	10655	213.353425564407	1
4	10677	213.67827624905	2
4	10680	213.678641582383	1
4	10720	214.562061905083	2
4	10723	214.562427238416	1
4	10796	216.55610110636	2
4	10799	216.556466439693	1
4	10815	216.681133696283	2
4	10818	216.681499029616	1
4	10855	217.409657539017	2
4	10858	217.41002287235	1
4	10887	217.551299573812	2
4	10890	217.551664907145	1
4	10952	218.770298918993	2
4	10955	218.770664252326	1
4	10995	219.603677159639	2
4	10998	219.604042492972	1
4	11017	219.806135923337	2
4	11020	219.80650125667	1
4	11036	219.962611693721	2
4	11039	219.962977027054	1
4	11069	220.598901787309	2
4	11072	220.598924453976	1
4	11089	220.632152284582	2
4	11092	220.632517617915	1
4	11144	221.912576638561	2
4	11147	221.912941971894	1
4	11160	221.943502930122	2
4	11163	221.943868263455	1
4	11218	223.317845944542	2
4	11221	223.318211277875	1
4	11237	223.415013622909	2
4	11240	223.415378956242	1
4	11259	223.660211715551	2
4	11262	223.660577048884	1
4	11330	225.043528181702	2
4	11333	225.043893515035	1
4	11373	225.92174326042	2
4	11376	225.922108593753	1
4	11415	226.847232396251	2
4	11418	226.847255062918	1
4	11514	229.190239661243	2
4	11517	229.190604994576	1
4	11539	229.465767598281	2
4	11542	229.466132931614	1
4	11558	229.571454772386	2
4	11561	229.571820105719	1
4	11574	229.588020866808	2
4	11577	229.588386200141	1
4	11671	232.240579382328	2
4	11674	232.240944715661	1
4	11720	233.348989136542	2
4	11723	233.349354469875	1
4	11753	233.938802676278	2
4	11756	233.938825342945	1
4	11810	234.886817851019	2
4	11813	234.887183184352	1
4	11866	235.769698395976	2
4	11869	235.770063729309	1
4	11903	236.487944876084	2
4	11906	236.488310209417	1
4	11946	237.35651060755	2
4	11949	237.356875940883	1
4	12010	238.905522286705	2
4	12013	238.905887620038	1
4	12053	239.838134141974	2
4	12056	239.838499475307	1
4	12075	240.084549964187	2
4	12078	240.08491529752	1
4	12109	240.691829252806	2
4	12112	240.692194586139	1
4	12217	242.802718027189	2
4	12220	242.803083360522	1
4	12269	244.05995502276	2
4	12272	244.060320356093	1
4	12306	244.725797509397	2
4	12309	244.72616284273	1
4	12358	245.958677972428	2
4	12361	245.959043305761	1
4	12395	246.648112510276	2
4	12398	246.648477843609	1
4	12468	248.509544153258	2
4	12471	248.509909486591	1
4	12490	248.725640369852	2
4	12493	248.726005703185	1
4	12505	248.782097015067	2
4	12508	248.782119681734	1
4	12567	250.209882852502	2
4	12570	250.210248185835	1
4	12595	250.636418664538	2
4	12598	250.636783997871	1
4	12614	250.796752759025	2
4	12617	250.797118092358	1
4	12741	253.914465582932	2
4	12744	253.914488249599	1
4	12785	254.804702413899	2
4	12788	254.805067747232	1
4	12819	255.49264589236	2
4	12822	255.493011225693	1
4	12868	256.512832980315	2
4	12871	256.513198313648	1
4	12912	256.972624298091	2
4	12915	256.972989631424	1
4	12946	257.531631968082	2
4	12949	257.531997301415	1
4	12971	257.885228543345	2
4	12974	257.885593876678	1
4	13002	258.397943185975	2
4	13005	258.398308519308	1
4	13024	258.526523423251	2
4	13027	258.526888756584	1
4	13157	262.47415669081	2
4	13160	262.474522024143	1
4	13188	262.995235511895	2
4	13191	262.995600845228	1
4	13224	263.698168648409	2
4	13227	263.698191315076	1
4	13247	263.837371814732	2
4	13250	263.837737148065	1
4	13375	267.077334781633	2
4	13378	267.077700114966	1
4	13425	267.607296360905	2
4	13428	267.607661694238	1
4	13453	268.012479243247	2
4	13456	268.01284457658	1
4	13469	268.097058735009	2
4	13472	268.097424068342	1
4	13503	268.620026388665	2
4	13506	268.620391721998	1
4	13525	268.884296852801	2
4	13528	268.884662186134	1
4	13547	269.026422364194	2
4	13550	269.026787697527	1
4	13563	269.081329736745	2
4	13566	269.081695070078	1
4	13618	270.374477595541	2
4	13621	270.374842928874	1
4	13634	270.38597084575	2
4	13637	270.386336179083	1
4	13695	271.858175003744	2
4	13698	271.858540337077	1
4	13717	272.0171081834	2
4	13720	272.017473516733	1
4	13733	272.099970456319	2
4	13739	272.100335789652	1
4	13752	272.193845003602	2
4	13755	272.194210336935	1
4	13804	273.308732425509	2
4	13807	273.309097758842	1
4	13826	273.59025644798	2
4	13829	273.590621781313	1
4	13860	274.135914162747	2
4	13863	274.13627949608	1
4	13900	274.950932493643	2
4	13903	274.951297826976	1
4	13976	276.920990059235	2
4	13979	276.921355392568	1
4	14031	278.21943569484	2
4	14034	278.219801028173	1
4	14052	278.427363550293	2
4	14055	278.42738621696	1
4	14072	278.534595723556	2
4	14075	278.534961056889	1
4	14131	279.430924928577	2
4	14134	279.43129026191	1
4	14156	279.789886246954	2
4	14159	279.790251580287	1
4	14197	280.093857806183	2
4	14200	280.094223139516	1
4	14237	280.837440997959	2
4	14240	280.837806331292	1
4	14271	281.420864768994	2
4	14274	281.421230102327	1
4	14344	283.335707026637	2
4	14347	283.33607235997	1
4	14378	283.903877510379	2
4	14381	283.904242843712	1
4	14461	285.657592155403	2
4	14464	285.657957488736	1
4	14485	285.988759379836	2
4	14488	285.988782046503	1
4	14541	287.211337657435	2
4	14544	287.211702990768	1
4	14587	288.290264565935	2
4	14590	288.290629899268	1
4	14612	288.52168553789	2
4	14615	288.522050871223	1
4	14701	290.4008039721	2
4	14704	290.401169305433	1
4	14726	290.701129052386	2
4	14729	290.701494385719	1
4	14770	291.169235505621	2
4	14773	291.169600838954	1
4	14785	291.178970914962	2
4	14788	291.179336248295	1
4	14822	291.852529186292	2
4	14825	291.852551852959	1
4	14887	293.405054904404	2
4	14890	293.405420237737	1
4	14909	293.624523065298	2
4	14912	293.624888398631	1
4	14943	294.240442349082	2
4	14946	294.240807682415	1
4	14959	294.286080398578	2
4	14962	294.286445731911	1
4	15023	295.894498247664	2
4	15026	295.894863580997	1
4	15042	295.974577103608	2
4	15045	295.974942436941	1
4	15082	296.706122442741	2
4	15085	296.706487776074	1
4	15123	297.072573734574	2
4	15126	297.072939067907	1
4	15157	297.607978085667	2
4	15160	297.608343419	1
4	15176	297.799274131565	2
4	15179	297.799639464898	1
4	15213	298.444182622731	2
4	15216	298.444547956064	1
4	15274	299.975031041674	2
4	15277	299.975396375007	1
4	15307	300.561057187153	2
4	15310	300.56107985382	1
4	15330	300.78792940286	2
4	15333	300.788294736193	1
4	15370	301.556182744727	2
4	15373	301.55654807806	1
4	15435	302.699978123846	2
4	15441	302.700343457179	1
4	15475	303.47482050335	2
4	15478	303.475185836683	1
4	15503	303.868878075297	2
4	15506	303.86924340863	1
4	15525	304.027890092096	2
4	15528	304.028255425429	1
4	15547	304.202088808679	2
4	15550	304.202454142012	1
4	15566	304.340675630102	2
4	15569	304.341040963435	1
4	15609	305.205613739531	2
4	15612	305.205979072864	1
4	15628	305.302411211839	2
4	15631	305.302776545172	1
4	15732	307.716427642347	2
4	15735	307.71679297568	1
4	15766	308.330031852088	2
4	15769	308.330397185421	1
4	15821	309.617993827164	2
4	15824	309.618359160497	1
4	15852	310.12719631403	2
4	15855	310.127561647363	1
4	15882	310.661225719379	2
4	15885	310.661248386046	1
4	15953	312.471065954829	2
4	15956	312.471431288162	1
4	15990	313.112039500093	2
4	15993	313.112404833426	1
4	16046	313.980009482111	2
4	16049	313.980374815444	1
4	16104	315.39379281165	2
4	16107	315.394158144983	1
4	16153	316.404561974749	2
4	16156	316.404927308082	1
4	16175	316.679025496753	2
4	16178	316.679390830086	1
4	16197	316.854020544971	2
4	16200	316.854385878304	1
4	16261	318.445576667764	2
4	16264	318.445942001097	1
4	16321	319.92428449914	2
4	16324	319.924307165807	1
4	16405	321.643831644534	2
4	16408	321.644196977867	1
4	16464	322.537833047214	2
4	16467	322.538198380547	1
4	16504	323.353851611179	2
4	16507	323.354216944512	1
4	16523	323.456403504183	2
4	16526	323.456768837516	1
4	16569	324.428414395245	2
4	16572	324.428779728578	1
4	16645	326.416353850089	2
4	16648	326.416719183422	1
4	16664	326.587892477462	2
4	16667	326.588257810795	1
4	16700	327.252939245665	2
4	16703	327.252961912332	1
4	16859	331.471391467807	2
4	16862	331.47175680114	1
4	16878	331.570612994291	2
4	16881	331.570978327624	1
4	16924	332.574664168169	2
4	16927	332.575029501502	1
4	17030	335.556443825495	2
4	17033	335.556809158828	1
4	17162	338.317048281178	2
4	17165	338.317413614511	1
4	17217	339.617885708638	2
4	17220	339.618251041971	1
4	17256	340.40817749221	2
4	17259	340.408200158877	1
4	17288	340.973604222488	2
4	17291	340.973969555821	1
4	17400	344.16736609517	2
4	17403	344.167731428503	1
4	17431	344.606443080758	2
4	17434	344.606808414091	1
4	17459	345.047597891488	2
4	17462	345.047963224821	1
4	17475	345.064061175473	2
4	17478	345.064426508806	1
4	17513	345.26891344262	2
4	17516	345.269278775953	1
4	17543	345.741223755759	2
4	17546	345.741246422426	1
4	17569	346.037376020011	2
4	17572	346.037741353344	1
4	17588	346.142308767339	2
4	17591	346.142674100672	1
4	17707	349.048228370995	2
4	17710	349.048593704328	1
4	17726	349.144769650023	2
4	17729	349.145134983356	1
4	17745	349.20236256684	2
4	17748	349.202727900173	1
4	17761	349.292870036988	2
4	17764	349.293235370321	1
4	17786	349.563594427725	2
4	17789	349.563959761058	1
4	17856	351.393136583584	2
4	17859	351.393501916917	1
4	17896	352.132056603523	2
4	17899	352.132421936856	1
4	17949	352.851701501212	2
4	17952	352.852066834545	1
4	17968	352.922203449573	2
4	17971	352.922568782906	1
4	17993	353.212476864696	2
4	17996	353.212842198029	1
4	18015	353.462427681346	2
4	18018	353.462793014679	1
4	18040	353.754373753075	2
4	18043	353.754739086408	1
4	18059	353.89484947003	2
4	18062	353.895214803363	1
4	18078	353.906958715092	2
4	18081	353.907324048425	1
4	18097	354.029673722409	2
4	18100	354.030039055742	1
4	18140	354.993266418698	2
4	18143	354.993631752031	1
4	18283	358.65282853716	2
4	18286	358.653193870493	1
4	18299	358.699563438895	2
4	18302	358.699928772228	1
4	18327	359.070725159696	2
4	18330	359.071090493029	1
4	18372	360.034137889744	2
4	18375	360.034160556411	1
4	18413	360.851659834587	2
4	18416	360.85202516792	1
4	18466	361.525603278806	2
4	18469	361.525968612139	1
4	18494	361.984631206293	2
4	18497	361.984996539626	1
4	18522	362.359693149412	2
4	18525	362.360058482745	1
4	18586	363.978354215832	2
4	18589	363.978719549165	1
4	18605	364.051405872987	2
4	18608	364.05177120632	1
4	18657	365.202068465916	2
4	18660	365.202433799249	1
4	18685	365.681281160399	2
4	18688	365.681646493732	1
4	18731	366.686214469459	2
4	18734	366.686579802792	1
4	18844	369.301855401881	2
4	18847	369.302220735214	1
4	18875	369.853657523519	2
4	18878	369.854022856852	1
4	18915	370.662637218652	2
4	18918	370.663002551985	1
4	18943	371.000983337351	2
4	18946	371.001348670684	1
4	18970	371.421755435878	2
4	18973	371.421778102545	1
4	19011	372.227115549585	2
4	19014	372.227480882918	1
4	19045	372.819772967522	2
4	19048	372.820138300855	1
4	19179	376.290418048057	2
4	19182	376.29078338139	1
4	19289	378.880244193554	2
4	19292	378.880609526887	1
4	19347	380.222263934737	2
4	19350	380.22262926807	1
4	19381	380.818435826134	2
4	19384	380.818801159467	1
4	19478	383.587580308972	2
4	19481	383.587945642305	1
4	19502	383.80402124487	2
4	19505	383.804043911537	1
4	19519	383.88495383688	2
4	19522	383.885319170213	1
4	19672	387.357809542783	2
4	19675	387.358174876116	1
4	19700	387.709576928213	2
4	19703	387.709942261546	1
4	19860	392.539297176182	2
4	19863	392.539662509515	1
4	19885	392.826206271566	2
4	19888	392.826571604899	1
4	19904	392.93815081271	2
4	19907	392.938516146043	1
4	20010	395.953119084896	2
4	20013	395.953484418229	1
4	20035	396.218935633918	2
4	20038	396.219300967251	1
4	20084	397.389371363932	2
4	20087	397.389736697265	1
4	20103	397.449499733062	2
4	20106	397.449865066395	1
4	20170	398.658935548739	2
4	20173	398.658958215406	1
4	20190	398.761462814147	2
4	20193	398.76182814748	1
4	20215	399.079517359338	2
4	20218	399.079882692671	1
4	20246	399.556033180311	2
4	20249	399.556398513644	1
4	20277	400.024911335939	2
4	20280	400.025276669272	1
4	20351	401.406370415787	2
4	20354	401.40673574912	1
4	20412	402.993727645479	2
4	20415	402.994092978812	1
4	20449	403.694773154805	2
4	20452	403.695138488138	1
4	20477	404.046094436347	2
4	20480	404.04645976968	1
4	20575	406.217320317701	2
4	20578	406.217685651034	1
4	20597	406.48879028413	2
4	20600	406.489155617463	1
4	20634	407.186727832961	2
4	20637	407.187093166294	1
4	20737	410.044153180777	2
4	20740	410.04451851411	1
4	20783	411.049268829349	2
4	20786	411.049634162682	1
4	20856	412.476137690247	2
4	20859	412.476160356914	1
4	20891	413.068853332568	2
4	20894	413.069218665901	1
4	20949	414.458211839516	2
4	20952	414.458577172849	1
4	21001	415.660769184225	2
4	21004	415.661134517558	1
4	21138	419.10171323181	2
4	21141	419.102078565143	1
4	21190	420.332432082841	2
4	21193	420.332797416174	1
4	21242	421.567111958894	2
4	21245	421.567477292227	1
4	21304	422.513213700148	2
4	21307	422.513579033481	1
4	21323	422.678506712469	2
4	21326	422.678872045802	1
4	21357	423.218909410071	2
4	21360	423.219274743404	1
4	21376	423.3596545655	2
4	21379	423.360019898833	1
4	21435	424.286293165797	2
4	21438	424.28665849913	1
4	21528	426.878234625329	2
4	21531	426.878257291996	1
4	21566	427.511609249514	2
4	21569	427.511974582847	1
4	21716	430.947232641992	2
4	21719	430.947597975325	1
4	21741	431.268572944861	2
4	21744	431.268938278194	1
4	21784	432.165625958967	2
4	21787	432.1659912923	1
4	21869	434.436336066364	2
4	21872	434.436701399697	1
4	21900	434.958447370775	2
4	21903	434.958812704108	1
4	21956	435.761584142696	2
4	21959	435.761949476029	1
4	21981	436.080425191109	2
4	21984	436.080790524442	1
4	22102	439.589488742113	2
4	22105	439.589854075446	1
4	22121	439.615316786539	2
4	22124	439.615682119872	1
4	22172	440.832093472128	2
4	22175	440.832116138795	1
4	22235	441.804963501097	2
4	22238	441.80532883443	1
4	22260	442.130380218259	2
4	22263	442.130745551592	1
4	22342	444.38287308833	2
4	22345	444.383238421663	1
4	22361	444.40975370784	2
4	22364	444.410119041173	1
4	22404	445.392282050562	2
4	22407	445.392647383895	1
4	22432	445.792077323039	2
4	22435	445.792442656372	1
4	22553	449.207002225471	2
4	22556	449.207367558804	1
4	22572	449.391618098377	2
4	22575	449.39198343171	1
4	22648	450.890757315793	2
4	22651	450.89077998246	1
4	22692	451.709144160943	2
4	22695	451.709509494276	1
4	22790	453.909473481387	2
4	22793	453.90983881472	1
4	22818	454.337914510178	2
4	22821	454.338279843511	1
4	22873	455.685363333869	2
4	22876	455.685728667202	1
4	22925	456.826406668122	2
4	22928	456.826772001455	1
4	22987	457.800285259602	2
4	22990	457.800650592935	1
4	23057	459.190113849473	2
4	23060	459.19013651614	1
4	23101	460.033925110701	2
4	23104	460.034290444034	1
4	23147	461.052878291777	2
4	23150	461.05324362511	1
4	23187	461.847751127843	2
4	23190	461.848116461176	1
4	23212	462.166144143899	2
4	23215	462.166509477232	1
4	23234	462.326628251257	2
4	23237	462.32699358459	1
4	23307	464.266676461135	2
4	23310	464.267041794468	1
4	23353	465.274690001619	2
4	23356	465.275055334952	1
4	23381	465.630855783183	2
4	23384	465.631221116516	1
4	23431	466.247448871706	2
4	23434	466.247814205039	1
4	23471	467.003615119496	2
4	23474	467.003980452829	1
4	23562	469.556091613043	2
4	23565	469.556456946376	1
4	23581	469.649847000653	2
4	23584	469.650212333986	1
4	23612	470.170625865524	2
4	23615	470.170991198857	1
4	23628	470.195239509595	2
4	23631	470.195604842928	1
4	23659	470.614718833064	2
4	23662	470.615084166397	1
4	23683	470.961257850286	2
4	23686	470.961280516953	1
4	23718	471.58819137671	2
4	23721	471.588556710043	1
4	23871	475.057585215487	2
4	23874	475.05795054882	1
4	23890	475.162297488916	2
4	23893	475.162662822249	1
4	23918	475.504472180532	2
4	23921	475.504837513865	1
4	23948	476.046373732388	2
4	23951	476.046396399055	1
4	23971	476.278988968467	2
4	23974	476.2793543018	1
4	24093	479.252197307949	2
4	24096	479.252562641282	1
4	24118	479.50978217429	2
4	24121	479.510147507623	1
4	24152	480.116494583534	2
4	24155	480.116859916867	1
4	24273	483.694996309371	2
4	24276	483.695361642704	1
4	24343	485.489669423368	2
4	24346	485.490034756701	1
4	24443	487.765945114661	2
4	24446	487.765967781328	1
4	24482	487.952313692774	2
4	24485	487.952679026107	1
4	24549	489.632596092855	2
4	24552	489.632961426188	1
4	24586	490.345552571983	2
4	24589	490.345917905316	1
4	24614	490.75196543873	2
4	24617	490.752330772063	1
4	24694	492.316621989428	2
4	24697	492.316987322761	1
4	24731	493.098506412532	2
4	24734	493.098871745865	1
4	24891	497.824901609393	2
4	24894	497.825266942726	1
4	24922	498.307954633656	2
4	24925	498.308319966989	1
4	24970	499.438793514855	2
4	24973	499.438816181522	1
4	25018	499.951307868862	2
4	25021	499.951673202195	1
5	0	0	1
5	320	10.488138387292	3
5	323	10.488161053959	1
5	372	11.00000335615	3
5	375	11.000368689483	1
5	409	11.787204482278	3
5	412	11.787569815611	1
5	436	12.151898124754	3
5	439	12.151920791421	1
5	459	12.3382529602	3
5	462	12.338618293533	1
5	490	12.823381116757	3
5	493	12.82374645009	1
5	515	13.176540247899	3
5	518	13.176905581232	1
5	534	13.234924915207	3
5	537	13.23529024854	1
5	559	13.553281046328	3
5	562	13.553646379661	1
5	596	14.202727375238	3
5	599	14.203092708571	1
5	660	15.874938530396	3
5	663	15.875303863729	1
5	697	16.52882108322	3
5	700	16.529186416553	1
5	728	17.027693081607	3
5	731	17.02805841494	1
5	798	18.836062291893	3
5	801	18.836427625226	1
5	826	19.247640279049	3
5	829	19.248005612382	1
5	872	20.292252766066	3
5	875	20.292618099399	1
5	903	20.751500890356	3
5	906	20.751866223689	1
5	1012	23.387535247475	3
5	1015	23.387557914142	1
5	1047	23.901670756682	3
5	1050	23.902036090015	1
5	1062	23.930795521191	3
5	1065	23.930818187858	1
5	1139	25.942562936296	3
5	1142	25.942928269629	1
5	1203	27.547802477394	3
5	1206	27.548167810727	1
5	1237	28.166731926463	3
5	1240	28.167097259796	1
5	1298	29.683267888345	3
5	1301	29.683633221678	1
5	1316	29.791043113435	3
5	1319	29.791065780102	1
5	1336	29.809142297378	3
5	1339	29.809507630711	1
5	1376	30.681463486146	3
5	1379	30.681828819479	1
5	1416	31.452298135311	3
5	1419	31.452663468644	1
5	1474	32.873662798868	3
5	1477	32.874028132201	1
5	1493	32.985608958458	3
5	1496	32.985974291791	1
5	1530	33.627303642325	3
5	1533	33.627668975658	1
5	1552	33.833506918632	3
5	1555	33.833872251965	1
5	1623	35.168797067245	3
5	1626	35.169162400578	1
5	1666	36.009131765826	3
5	1669	36.009497099159	1
5	1682	36.028100335091	3
5	1685	36.028465668424	1
5	1725	36.989481278839	3
5	1728	36.989846612172	1
5	1771	37.936477958417	3
5	1774	37.93684329175	1
5	1810	38.71697878487	3
5	1813	38.717001451537	1
5	1830	38.896025939086	3
5	1833	38.896391272419	1
5	1918	41.224939359668	3
5	1921	41.225304693001	1
5	1952	41.822685445108	3
5	1955	41.823050778441	1
5	1971	41.997369781032	3
5	1977	41.997392447699	1
5	2011	42.77218003769	3
5	2014	42.772545371023	1
5	2063	43.968287833061	3
5	2066	43.968653166394	1
5	2082	44.030403123862	3
5	2085	44.030768457195	1
5	2147	45.129315605682	3
5	2150	45.129680939015	1
5	2169	45.316741667832	3
5	2172	45.317107001165	1
5	2197	45.760145687414	3
5	2200	45.760511020747	1
5	2255	47.149188362435	3
5	2258	47.149553695768	1
5	2282	47.581868608981	3
5	2285	47.581891275648	1
5	2314	48.085249915896	3
5	2317	48.085615249229	1
5	2357	48.929677717966	3
5	2360	48.930043051299	1
5	2391	49.507002027054	3
5	2394	49.507367360387	1
5	2461	51.367689457306	3
5	2467	51.367712123973	1
5	2555	53.961498848445	3
5	2558	53.961864181778	1
5	2604	55.019325259302	3
5	2607	55.019690592635	1
5	2666	56.02734449012	3
5	2669	56.027709823453	1
5	2687	56.218976303642	3
5	2690	56.218998970309	1
5	2728	57.086087190098	3
5	2731	57.086452523431	1
5	2762	57.621151858673	3
5	2765	57.621517192006	1
5	2796	58.264932852007	3
5	2799	58.26529818534	1
5	2842	59.241796916029	3
5	2845	59.242162249362	1
5	2870	59.654298139267	3
5	2873	59.6546634726	1
5	2919	60.777466429045	3
5	2922	60.777831762378	1
5	2947	61.159022266852	3
5	2950	61.159387600185	1
5	3024	62.66565754754	3
5	3027	62.666022880873	1
5	3055	63.125671486069	3
5	3058	63.126036819402	1
5	3122	64.846003060859	3
5	3125	64.846368394192	1
5	3141	64.948147937739	3
5	3144	64.948513271072	1
5	3187	65.957182210181	3
5	3193	65.957204876848	1
5	3227	66.767966797607	3
5	3230	66.76833213094	1
5	3251	67.037479334113	3
5	3254	67.03750200078	1
5	3383	70.341555076041	3
5	3386	70.341920409374	1
5	3420	71.054138649525	3
5	3423	71.054503982858	1
5	3439	71.111465573707	3
5	3442	71.11183090704	1
5	3473	71.711412432076	3
5	3476	71.711777765409	1
5	3489	71.731602559296	3
5	3492	71.731967892629	1
5	3523	72.314480928913	3
5	3526	72.314846262246	1
5	3656	76.206050934488	3
5	3659	76.206416267821	1
5	3684	76.651470381018	3
5	3687	76.651835714351	1
5	3721	77.307116647616	3
5	3724	77.307481980949	1
5	3746	77.693778321364	3
5	3752	77.693800988031	1
5	3786	78.473990155525	3
5	3789	78.474355488858	1
5	3820	79.00887452504	3
5	3823	79.009239858373	1
5	3836	79.075171925144	3
5	3839	79.075537258477	1
5	3888	80.254361429742	3
5	3891	80.254726763075	1
5	3928	81.090458949865	3
5	3931	81.090824283198	1
5	3953	81.398873785543	3
5	3956	81.399239118876	1
5	3983	81.802073609814	3
5	3986	81.802096276481	1
5	4009	82.139632726272	3
5	4012	82.139998059605	1
5	4116	84.679937200386	3
5	4119	84.680302533719	1
5	4168	85.873610064212	3
5	4174	85.873632730879	1
5	4229	87.32919309103	3
5	4232	87.329558424363	1
5	4244	87.338593841678	3
5	4247	87.338959175011	1
5	4315	89.18592148011	3
5	4318	89.186286813443	1
5	4364	90.227702144845	3
5	4367	90.228067478178	1
5	4434	92.068984647632	3
5	4437	92.069349980965	1
5	4459	92.376502378536	3
5	4462	92.376867711869	1
5	4490	92.883702512271	3
5	4493	92.884067845604	1
5	4530	93.650795804845	3
5	4536	93.650818471512	1
5	4546	93.688499921497	3
5	4549	93.68886525483	1
5	4632	95.454241027843	3
5	4635	95.454606361176	1
5	4654	95.612582531498	3
5	4657	95.612947864831	1
5	4678	95.969303189579	3
5	4681	95.969325856246	1
5	4710	96.455665566701	3
5	4713	96.456030900034	1
5	4765	97.784423442699	3
5	4768	97.784788776032	1
5	4814	98.851871464138	3
5	4820	98.851894130805	1
5	4896	101.059566634609	3
5	4899	101.059931967942	1
5	4954	102.47059105456	3
5	4957	102.470956387893	1
5	5001	102.974934863326	3
5	5004	102.975300196659	1
5	5037	103.669382916584	3
5	5040	103.669405583251	1
5	5060	103.824155687817	3
5	5063	103.82452102115	1
5	5142	106.045662635886	3
5	5145	106.046027969219	1
5	5191	107.185270623755	3
5	5194	107.185635957088	1
5	5225	107.781650027395	3
5	5228	107.782015360728	1
5	5253	108.184752513058	3
5	5259	108.184775179725	1
5	5374	111.624656664204	3
5	5377	111.625021997537	1
5	5399	111.977676799754	3
5	5402	111.978042133087	1
5	5482	113.658599019898	3
5	5485	113.658964353231	1
5	5531	114.783881055685	3
5	5534	114.784246389018	1
5	5555	115.058593899023	3
5	5558	115.05861656569	1
5	5572	115.071291536739	3
5	5575	115.071656870072	1
5	5654	117.206122034539	3
5	5657	117.206487367872	1
5	5703	118.385504988666	3
5	5706	118.385870321999	1
5	5758	119.677414265695	3
5	5761	119.677779599028	1
5	5789	120.179545878041	3
5	5795	120.179568544708	1
5	5811	120.373213730702	3
5	5814	120.373579064035	1
5	5836	120.635270974902	3
5	5839	120.635636308235	1
5	5867	121.137581778774	3
5	5870	121.137947112107	1
5	5913	122.102035358447	3
5	5916	122.10240069178	1
5	5963	122.746140074128	3
5	5966	122.746505407461	1
5	5991	123.10506729447	3
5	5994	123.105432627803	1
5	6037	124.18438750931	3
5	6040	124.184752842643	1
5	6065	124.526987140352	3
5	6068	124.527352473685	1
5	6108	125.489362207843	3
5	6111	125.489727541176	1
5	6135	125.871322809465	3
5	6138	125.871345476132	1
5	6158	126.049323281256	3
5	6161	126.049688614589	1
5	6177	126.157870380346	3
5	6180	126.158235713679	1
5	6196	126.254793135462	3
5	6199	126.255158468795	1
5	6224	126.691821151765	3
5	6227	126.692186485098	1
5	6264	127.494373137716	3
5	6267	127.494738471049	1
5	6283	127.528576555965	3
5	6286	127.528941889298	1
5	6405	130.511608498527	3
5	6411	130.511631165194	1
5	6436	131.001112022755	3
5	6439	131.001477356088	1
5	6458	131.251193512561	3
5	6461	131.251558845894	1
5	6480	131.403487134708	3
5	6483	131.403852468041	1
5	6499	131.505807747491	3
5	6502	131.506173080824	1
5	6638	135.643617412003	3
5	6641	135.643982745336	1
5	6663	135.945183319997	3
5	6666	135.94554865333	1
5	6703	136.715260167594	3
5	6706	136.715625500927	1
5	6737	137.309333657001	3
5	6740	137.309698990334	1
5	6756	137.414215491001	3
5	6759	137.414580824334	1
5	6784	137.848561140942	3
5	6787	137.848926474275	1
5	6818	138.482023750597	3
5	6821	138.48238908393	1
5	6843	138.721580997511	3
5	6849	138.721603664178	1
5	6901	139.655844555877	3
5	6904	139.655867222544	1
5	6939	140.321756522474	3
5	6942	140.322121855807	1
5	6958	140.499082096405	3
5	6961	140.499447429738	1
5	7004	141.455048517785	3
5	7007	141.455413851118	1
5	7023	141.587232227624	3
5	7026	141.587597560957	1
5	7096	143.471161117033	3
5	7099	143.471526450366	1
5	7163	145.117880237664	3
5	7166	145.118245570997	1
5	7182	145.216064067721	3
5	7188	145.216086734388	1
5	7219	145.959761215141	3
5	7222	145.960126548474	1
5	7235	145.993548001374	3
5	7238	145.993913334707	1
5	7374	150.043394881965	3
5	7377	150.043760215298	1
5	7405	150.510667451706	3
5	7408	150.511032785039	1
5	7436	151.055524584139	3
5	7439	151.055889917472	1
5	7455	151.1074371366	3
5	7458	151.107802469933	1
5	7483	151.562348984178	3
5	7486	151.562714317511	1
5	7499	151.579116750284	3
5	7502	151.579482083617	1
5	7518	151.61578992931	3
5	7524	151.615812595977	1
5	7540	151.841446061352	3
5	7543	151.841811394685	1
5	7568	152.287698883909	3
5	7571	152.288064217242	1
5	7616	153.337105252684	3
5	7619	153.337127919351	1
5	7655	153.59699725202	3
5	7658	153.597362585353	1
5	7695	154.333128354997	3
5	7698	154.33349368833	1
5	7711	154.388998408229	3
5	7714	154.389363741562	1
5	7736	154.612137617833	3
5	7739	154.612502951166	1
5	7752	154.630833088389	3
5	7755	154.631198421722	1
5	7816	156.209245820888	3
5	7819	156.209611154221	1
5	7838	156.462751529424	3
5	7841	156.463116862757	1
5	7863	156.732930785846	3
5	7869	156.732953452513	1
5	7882	156.886408636879	3
5	7885	156.886773970212	1
5	7928	157.82354737659	3
5	7931	157.823912709923	1
5	7971	158.731511433902	3
5	7974	158.731876767235	1
5	8048	160.262342724684	3
5	8051	160.262708058017	1
5	8094	161.233824930666	3
5	8097	161.234190263999	1
5	8134	162.094748613082	3
5	8137	162.095113946415	1
5	8159	162.366416699853	3
5	8162	162.366782033186	1
5	8256	165.087765099713	3
5	8259	165.088130433046	1
5	8295	165.837098168597	3
5	8298	165.837120835264	1
5	8318	166.039594862158	3
5	8321	166.039960195491	1
5	8407	168.036766952726	3
5	8410	168.037132286059	1
5	8462	169.34655240504	3
5	8465	169.346917738373	1
5	8490	169.720438917746	3
5	8493	169.720804251079	1
5	8521	170.228304068241	3
5	8524	170.228669401574	1
5	8543	170.46382865738	3
5	8546	170.464193990713	1
5	8565	170.66986071968	3
5	8568	170.670226053013	1
5	8681	173.558936388714	3
5	8684	173.559301722047	1
5	8715	174.160615388492	3
5	8718	174.160980721825	1
5	8835	177.628004839661	3
5	8838	177.628027506328	1
5	8852	177.675094179437	3
5	8855	177.67545951277	1
5	8890	177.968601841065	3
5	8893	177.968967174398	1
5	8909	178.026674205216	3
5	8912	178.027039538549	1
5	8943	178.695787954036	3
5	8946	178.696153287369	1
5	9025	180.824458119756	3
5	9028	180.824823453089	1
5	9178	184.571152880248	3
5	9181	184.571518213581	1
5	9205	184.902151400007	3
5	9208	184.902174066674	1
5	9234	185.353128626702	3
5	9237	185.353493960035	1
5	9253	185.422746299712	3
5	9256	185.423111633045	1
5	9302	186.560284835446	3
5	9305	186.560650168779	1
5	9336	187.164866068499	3
5	9339	187.165231401832	1
5	9376	187.933985880415	3
5	9379	187.934351213748	1
5	9457	190.148938769109	3
5	9460	190.148961435776	1
5	9477	190.203825906867	3
5	9480	190.2041912402	1
5	9524	190.837755930999	3
5	9527	190.838121264332	1
5	9573	191.925660392107	3
5	9576	191.92602572544	1
5	9598	192.231265299655	3
5	9601	192.231630632988	1
5	9614	192.252132518589	3
5	9617	192.252497851922	1
5	9672	193.672515987944	3
5	9675	193.672881321277	1
5	9700	194.058203684131	3
5	9703	194.058569017464	1
5	9731	194.541842073792	3
5	9734	194.542207407125	1
5	9787	195.429344005263	3
5	9790	195.429709338596	1
5	9824	196.162711680472	3
5	9831	196.163077013805	1
5	9839	196.163080894594	3
5	9842	196.163446227927	1
5	9868	196.536530328072	3
5	9871	196.536895661405	1
5	9899	197.090701160719	3
5	9902	197.091066494052	1
5	9994	199.256464893385	3
5	9997	199.256830226718	1
5	10100	202.295908322793	3
5	10103	202.29593098946	1
5	10120	202.309649669749	3
5	10123	202.310015003082	1
5	10154	202.970152765633	3
5	10157	202.970518098966	1
5	10231	204.524815727224	3
5	10234	204.525181060557	1
5	10300	205.837323682311	3
5	10303	205.837689015644	1
5	10328	206.213753020282	3
5	10331	206.214118353615	1
5	10437	209.370848457731	3
5	10440	209.371213791064	1
5	10474	210.009037051619	3
5	10477	210.009402384952	1
5	10526	211.252387804121	3
5	10529	211.252753137454	1
5	10548	211.419262443406	3
5	10551	211.419627776739	1
5	10575	211.857205887126	3
5	10578	211.857228553793	1
5	10619	212.730234787072	3
5	10622	212.730600120405	1
5	10653	213.35306407477	3
5	10656	213.353429408103	1
5	10678	213.678280078856	3
5	10681	213.678645412189	1
5	10721	214.562065703051	3
5	10724	214.562431036384	1
5	10797	216.55610483157	3
5	10800	216.556470164903	1
5	10816	216.681137416958	3
5	10819	216.681502750291	1
5	10856	217.409661235357	3
5	10859	217.41002656869	1
5	10888	217.55130326575	3
5	10891	217.551668599083	1
5	10953	218.770302564732	3
5	10956	218.770667898065	1
5	10996	219.603680779241	3
5	10999	219.604046112574	1
5	11018	219.806139537441	3
5	11021	219.806504870774	1
5	11037	219.962615303592	3
5	11040	219.962980636925	1
5	11070	220.598905379153	3
5	11073	220.59892804582	1
5	11090	220.632155875484	3
5	11093	220.632521208817	1
5	11145	221.912580194753	3
5	11148	221.912945528086	1
5	11161	221.943506485491	3
5	11164	221.943871818824	1
5	11219	223.317849479543	3
5	11222	223.318214812876	1
5	11238	223.415017156696	3
5	11241	223.415382490029	1
5	11260	223.66021524628	3
5	11263	223.660580579613	1
5	11331	225.043531688045	3
5	11334	225.043897021378	1
5	11374	225.921746747128	3
5	11377	225.922112080461	1
5	11416	226.847235865307	3
5	11419	226.847258531974	1
5	11515	229.190243111693	3
5	11518	229.190608445026	1
5	11540	229.465771046481	3
5	11543	229.466136379814	1
5	11559	229.571458219726	3
5	11562	229.571823553059	1
5	11575	229.588024314013	3
5	11578	229.588389647346	1
5	11672	232.240582800602	3
5	11675	232.240948133935	1
5	11721	233.348992559504	3
5	11724	233.349357892837	1
5	11754	233.938806102565	3
5	11757	233.938828769232	1
5	11811	234.886821279355	3
5	11814	234.887186612688	1
5	11867	235.769701829946	3
5	11870	235.770067163279	1
5	11904	236.487948318044	3
5	11907	236.488313651377	1
5	11947	237.356514060059	3
5	11950	237.356879393392	1
5	12011	238.905525750744	3
5	12014	238.905891084077	1
5	12054	239.838137607835	3
5	12057	239.838502941168	1
5	12076	240.084553430826	3
5	12079	240.084918764159	1
5	12110	240.691832722672	3
5	12113	240.692198056005	1
5	12218	242.802721499058	3
5	12221	242.803086832391	1
5	12270	244.059958499177	3
5	12273	244.06032383251	1
5	12307	244.725800991078	3
5	12310	244.726166324411	1
5	12359	245.958681479335	3
5	12362	245.959046812668	1
5	12396	246.648116024129	3
5	12399	246.648481357462	1
5	12469	248.50954768849	3
5	12472	248.509913021823	1
5	12491	248.725643906748	3
5	12494	248.726009240081	1
5	12506	248.782100552411	3
5	12509	248.782123219078	1
5	12569	250.20988641172	3
5	12573	250.210251745053	1
5	12597	250.636422225693	3
5	12601	250.636787559026	1
5	12616	250.796756321513	3
5	12620	250.797121654846	1
5	12743	253.914469157821	3
5	12749	253.914491824488	1
5	12787	254.804705984161	3
5	12791	254.805071317494	1
5	12821	255.492649461383	3
5	12825	255.493014794716	1
5	12870	256.512836551971	3
5	12874	256.513201885304	1
5	12888	256.667260006224	3
5	12894	256.667282672891	1
5	12914	256.972627872584	3
5	12918	256.972993205917	1
5	12948	257.531635543465	3
5	12952	257.532000876798	1
5	12973	257.885232119437	3
5	12977	257.88559745277	1
5	13004	258.397946763942	3
5	13008	258.398312097275	1
5	13026	258.526527001831	3
5	13030	258.526892335164	1
5	13159	262.474160308033	3
5	13163	262.474525641366	1
5	13190	262.995239131907	3
5	13194	262.99560446524	1
5	13226	263.698172264608	3
5	13232	263.698194931275	1
5	13249	263.837375430179	3
5	13253	263.837740763512	1
5	13321	265.772181083086	3
5	13327	265.772203749753	1
5	13377	267.077338368431	3
5	13381	267.077703701764	1
5	13427	267.607299950718	3
5	13431	267.607665284051	1
5	13455	268.012482835655	3
5	13459	268.012848168988	1
5	13471	268.097062327517	3
5	13475	268.09742766085	1
5	13505	268.620029981925	3
5	13509	268.620395315258	1
5	13527	268.884300446525	3
5	13531	268.884665779858	1
5	13549	269.026425958084	3
5	13553	269.026791291417	1
5	13565	269.081333330521	3
5	13569	269.081698663854	1
5	13620	270.374481185554	3
5	13624	270.374846518887	1
5	13636	270.385974435694	3
5	13640	270.386339769027	1
5	13697	271.85817858922	3
5	13701	271.858543922553	1
5	13719	272.017111768814	3
5	13723	272.017477102147	1
5	13735	272.099974042015	3
5	13742	272.100339375348	1
5	13754	272.193848589625	3
5	13758	272.194213922958	1
5	13806	273.308736013588	3
5	13810	273.309101346921	1
5	13828	273.590260035242	3
5	13832	273.590625368575	1
5	13862	274.135917749293	3
5	13866	274.136283082626	1
5	13902	274.950936082487	3
5	13906	274.95130141582	1
5	13978	276.920993657608	3
5	13982	276.921358990941	1
5	14033	278.219439289724	3
5	14037	278.219804623057	1
5	14054	278.427367143611	3
5	14060	278.427389810278	1
5	14074	278.534599316072	3
5	14078	278.534964649405	1
5	14092	278.660908103152	3
5	14098	278.660930769819	1
5	14133	279.430928515984	3
5	14137	279.431293849317	1
5	14158	279.78988983299	3
5	14162	279.790255166323	1
5	14199	280.093861391449	3
5	14203	280.094226724782	1
5	14239	280.837444583453	3
5	14243	280.837809916786	1
5	14273	281.420868353165	3
5	14277	281.421233686498	1
5	14346	283.335710592463	3
5	14350	283.336075925796	1
5	14380	283.903881073854	3
5	14384	283.904246407187	1
5	14404	284.214650959568	3
5	14410	284.214673626235	1
5	14463	285.657595718859	3
5	14467	285.657961052192	1
5	14487	285.98876294301	3
5	14493	285.988785609677	1
5	14543	287.211341225492	3
5	14547	287.211706558825	1
5	14589	288.29026813755	3
5	14593	288.290633470883	1
5	14614	288.521689112382	3
5	14618	288.522054445715	1
5	14703	290.400807571701	3
5	14707	290.401172905034	1
5	14728	290.701132656499	3
5	14732	290.701497989832	1
5	14752	291.026160266754	3
5	14758	291.026182933421	1
5	14772	291.169239118775	3
5	14776	291.169604452108	1
5	14787	291.178974528323	3
5	14791	291.179339861656	1
5	14824	291.852532814066	3
5	14830	291.852555480733	1
5	14889	293.405058556379	3
5	14893	293.405423889712	1
5	14911	293.624526721932	3
5	14915	293.624892055265	1
5	14945	294.240446020514	3
5	14949	294.240811353847	1
5	14961	294.286084071299	3
5	14965	294.286449404632	1
5	15025	295.894501962504	3
5	15029	295.894867295837	1
5	15044	295.97458082042	3
5	15048	295.974946153753	1
5	15084	296.706126180282	3
5	15088	296.706491513615	1
5	15099	296.724750264917	3
5	15105	296.724772931584	1
5	15125	297.072577482527	3
5	15129	297.07294281586	1
5	15159	297.607981847991	3
5	15163	297.608347181324	1
5	15178	297.799277899075	3
5	15182	297.799643232408	1
5	15215	298.444186406946	3
5	15219	298.444551740279	1
5	15276	299.975034871343	3
5	15280	299.975400204676	1
5	15309	300.561061029276	3
5	15315	300.561083695943	1
5	15332	300.787933249715	3
5	15336	300.788298583048	1
5	15372	301.556186607289	3
5	15376	301.556551940622	1
5	15437	302.699981996629	3
5	15444	302.700347329962	1
5	15477	303.47482437434	3
5	15481	303.475189707673	1
5	15505	303.868881944033	3
5	15509	303.869247277366	1
5	15527	304.027893960136	3
5	15531	304.028259293469	1
5	15549	304.202092676521	3
5	15553	304.202458009854	1
5	15568	304.340679497789	3
5	15572	304.341044831122	1
5	15611	305.205617606133	3
5	15615	305.205982939466	1
5	15630	305.302415078267	3
5	15634	305.3027804116	1
5	15684	306.608850576465	3
5	15690	306.608873243132	1
5	15734	307.716431508164	3
5	15738	307.716796841497	1
5	15768	308.330035713122	3
5	15772	308.330401046455	1
5	15823	309.61799767549	3
5	15827	309.618363008823	1
5	15854	310.127200153436	3
5	15858	310.127565486769	1
5	15884	310.661229551018	3
5	15890	310.661252217685	1
5	15955	312.47106976322	3
5	15959	312.471435096553	1
5	15992	313.112043301995	3
5	15996	313.112408635328	1
5	16048	313.980013277514	3
5	16052	313.980378610847	1
5	16106	315.393796595123	3
5	16110	315.394161928456	1
5	16155	316.40456574478	3
5	16159	316.404931078113	1
5	16177	316.679029263865	3
5	16181	316.679394597198	1
5	16199	316.854024310233	3
5	16203	316.854389643566	1
5	16263	318.445580405172	3
5	16267	318.445945738505	1
5	16323	319.924288232081	3
5	16329	319.924310898748	1
5	16354	320.429263944538	3
5	16360	320.429286611205	1
5	16407	321.643835357378	3
5	16411	321.644200690711	1
5	16466	322.537836765515	3
5	16470	322.538202098848	1
5	16506	323.353855333445	3
5	16510	323.354220666778	1
5	16525	323.456407226625	3
5	16529	323.456772559958	1
5	16571	324.42841811871	3
5	16575	324.428783452043	1
5	16647	326.416357556326	3
5	16651	326.416722889659	1
5	16666	326.587896182914	3
5	16670	326.588261516247	1
5	16702	327.252942946843	3
5	16708	327.25296561351	1
5	16802	330.010651483009	3
5	16808	330.010674149676	1
5	16861	331.471395088949	3
5	16865	331.471760422282	1
5	16880	331.570616610391	3
5	16884	331.570981943724	1
5	16926	332.574667720443	3
5	16930	332.575033053776	1
5	17032	335.556447188669	3
5	17036	335.556812522002	1
5	17056	335.860661720863	3
5	17062	335.86068438753	1
5	17164	338.31705145616	3
5	17168	338.317416789493	1
5	17219	339.61788880022	3
5	17223	339.618254133553	1
5	17258	340.408180538308	3
5	17264	340.408203204975	1
5	17290	340.97360723291	3
5	17294	340.973972566243	1
5	17402	344.167368845396	3
5	17406	344.167734178729	1
5	17433	344.606445800307	3
5	17437	344.60681113364	1
5	17461	345.047600579464	3
5	17465	345.047965912797	1
5	17477	345.064063862	3
5	17481	345.064429195333	1
5	17495	345.100983434767	3
5	17501	345.101006101434	1
5	17515	345.268916111129	3
5	17519	345.269281444462	1
5	17545	345.741226382831	3
5	17551	345.741249049498	1
5	17571	346.037378621973	3
5	17575	346.037743955306	1
5	17590	346.142311362366	3
5	17594	346.142676695699	1
5	17709	349.048230770042	3
5	17713	349.048596103375	1
5	17728	349.144772043688	3
5	17732	349.145137377021	1
5	17747	349.202364957298	3
5	17751	349.202730290631	1
5	17763	349.292872422411	3
5	17767	349.293237755744	1
5	17788	349.563596798131	3
5	17792	349.563962131464	1
5	17858	351.393138837696	3
5	17862	351.393504171029	1
5	17898	352.132058805788	3
5	17902	352.132424139121	1
5	17951	352.851703654979	3
5	17955	352.852068988312	1
5	17970	352.922205598605	3
5	17974	352.922570931938	1
5	17995	353.212478990112	3
5	17999	353.212844323445	1
5	18017	353.462429785191	3
5	18021	353.462795118524	1
5	18042	353.75437583182	3
5	18046	353.754741165153	1
5	18061	353.894851536735	3
5	18065	353.895216870068	1
5	18080	353.906960780761	3
5	18084	353.907326114094	1
5	18099	354.029675778031	3
5	18103	354.030041111364	1
5	18142	354.993268406992	3
5	18146	354.993633740325	1
5	18264	358.554558991664	3
5	18267	358.554581658331	1
5	18285	358.652830274027	3
5	18289	358.65319560736	1
5	18301	358.69956517274	3
5	18305	358.699930506073	1
5	18329	359.070726869578	3
5	18333	359.071092202911	1
5	18374	360.034139537779	3
5	18380	360.034162204446	1
5	18415	360.851661437728	3
5	18419	360.852026771061	1
5	18468	361.5256048406	3
5	18472	361.525970173933	1
5	18496	361.984632739804	3
5	18500	361.984998073137	1
5	18524	362.359694665167	3
5	18528	362.3600599985	1
5	18587	363.978355662889	3
5	18590	363.978720996222	1
5	18606	364.051407317469	3
5	18609	364.051772650802	1
5	18658	365.202069857373	3
5	18661	365.202435190706	1
5	18686	365.681282525336	3
5	18689	365.681647858669	1
5	18732	366.686215775065	3
5	18735	366.686581108398	1
5	18765	367.297791190475	3
5	18768	367.297813857142	1
5	18845	369.301856582423	3
5	18848	369.302221915756	1
5	18876	369.853658681094	3
5	18879	369.854024014427	1
5	18916	370.662638344921	3
5	18919	370.663003678254	1
5	18944	371.000984451565	3
5	18947	371.001349784898	1
5	18971	371.421756537646	3
5	18974	371.421779204313	1
5	19012	372.227116630966	3
5	19015	372.227481964299	1
5	19046	372.819774039026	3
5	19049	372.820139372359	1
5	19180	376.290419072121	3
5	19183	376.290784405454	1
5	19231	377.470876941468	3
5	19234	377.470899608135	1
5	19290	378.880245205247	3
5	19293	378.88061053858	1
5	19348	380.222264924468	3
5	19351	380.222630257801	1
5	19382	380.818436814002	3
5	19385	380.818802147335	1
5	19479	383.587581279708	3
5	19482	383.587946613041	1
5	19503	383.804022215932	3
5	19506	383.804044882599	1
5	19520	383.884954808128	3
5	19523	383.885320141461	1
5	19629	386.446212465661	3
5	19632	386.446235132328	1
5	19673	387.357810524796	3
5	19676	387.358175858129	1
5	19701	387.709577913576	3
5	19704	387.709943246909	1
5	19861	392.539298198725	3
5	19864	392.539663532058	1
5	19886	392.826207296645	3
5	19889	392.826572629978	1
5	19905	392.938151838897	3
5	19908	392.93851717223	1
5	20011	395.953120147178	3
5	20014	395.953485480511	1
5	20036	396.218936697132	3
5	20039	396.219302030465	1
5	20085	397.389372433697	3
5	20088	397.38973776703	1
5	20104	397.449500803416	3
5	20107	397.449866136749	1
5	20171	398.658936621858	3
5	20174	398.658959288525	1
5	20191	398.761463886902	3
5	20194	398.761829220235	1
5	20216	399.079518431743	3
5	20219	399.079883765076	1
5	20247	399.55603425026	3
5	20250	399.556399583593	1
5	20278	400.024912404582	3
5	20281	400.025277737915	1
5	20305	400.495696432943	3
5	20308	400.49571909961	1
5	20352	401.406371472399	3
5	20355	401.406736805732	1
5	20413	402.993728714151	3
5	20416	402.994094047484	1
5	20450	403.694774233619	3
5	20453	403.695139566952	1
5	20478	404.046095520872	3
5	20481	404.046460854205	1
5	20576	406.217321449406	3
5	20579	406.217686782739	1
5	20598	406.48879142277	3
5	20601	406.489156756103	1
5	20635	407.186728990093	3
5	20638	407.187094323426	1
5	20738	410.044154405512	3
5	20741	410.044519738845	1
5	20784	411.049270066355	3
5	20787	411.049635399688	1
5	20836	412.296852190225	3
5	20842	412.296874856892	1
5	20857	412.476138922907	3
5	20860	412.476161589574	1
5	20892	413.068854565663	3
5	20895	413.069219898996	1
5	20950	414.458213073102	3
5	20953	414.458578406435	1
5	21002	415.660770431632	3
5	21005	415.661135764965	1
5	21139	419.10171451544	3
5	21142	419.102079848773	1
5	21191	420.332433391185	3
5	21194	420.332798724518	1
5	21243	421.567113295639	3
5	21246	421.567478628972	1
5	21286	422.493280807419	3
5	21292	422.493303474086	1
5	21305	422.513215056937	3
5	21308	422.51358039027	1
5	21324	422.678508072006	3
5	21327	422.678873405339	1
5	21358	423.21891077798	3
5	21361	423.219276111313	1
5	21377	423.359655935299	3
5	21380	423.360021268632	1
5	21436	424.28629455266	3
5	21439	424.286659885993	1
5	21529	426.878236053742	3
5	21532	426.878258720409	1
5	21567	427.511610678494	3
5	21570	427.511976011827	1
5	21686	430.421221293358	3
5	21692	430.421243960025	1
5	21717	430.947234125197	3
5	21720	430.94759945853	1
5	21742	431.268574435479	3
5	21745	431.268939768812	1
5	21785	432.165627470288	3
5	21788	432.165992803621	1
5	21870	434.436337612745	3
5	21873	434.436702946078	1
5	21901	434.958448926909	3
5	21904	434.958814260242	1
5	21957	435.76158572255	3
5	21960	435.761951055883	1
5	21982	436.080426780029	3
5	21985	436.080792113362	1
5	22103	439.589490448798	3
5	22106	439.589855782131	1
5	22122	439.615318494073	3
5	22125	439.615683827406	1
5	22173	440.832095229162	3
5	22176	440.832117895829	1
5	22190	440.890070623991	3
5	22196	440.890093290658	1
5	22236	441.80496530512	3
5	22239	441.805330638453	1
5	22261	442.130382038831	3
5	22264	442.130747372164	1
5	22344	444.382875048211	3
5	22348	444.383240381544	1
5	22363	444.409755669394	3
5	22367	444.410121002727	1
5	22406	445.392284072142	3
5	22410	445.392649405475	1
5	22434	445.792079362405	3
5	22438	445.792444695738	1
5	22555	449.207004396692	3
5	22559	449.207369730025	1
5	22574	449.391620276609	3
5	22578	449.391985609942	1
5	22650	450.890759550518	3
5	22656	450.890782217185	1
5	22694	451.709146440151	3
5	22698	451.709511773484	1
5	22745	452.976159104385	3
5	22751	452.976181771052	1
5	22792	453.909475854577	3
5	22796	453.90984118791	1
5	22820	454.337916906484	3
5	22824	454.338282239817	1
5	22875	455.685365813363	3
5	22879	455.685731146696	1
5	22927	456.826409201136	3
5	22931	456.826774534469	1
5	22989	457.800287841369	3
5	22993	457.800653174702	1
5	23040	459.022437713493	3
5	23046	459.02246038016	1
5	23059	459.190116484425	3
5	23065	459.190139151092	1
5	23103	460.033927786971	3
5	23107	460.034293120304	1
5	23149	461.052881016927	3
5	23153	461.05324635026	1
5	23189	461.847753904356	3
5	23193	461.848119237689	1
5	23214	462.166146938073	3
5	23218	462.166512271406	1
5	23236	462.326631052972	3
5	23240	462.326996386305	1
5	23309	464.26667934958	3
5	23313	464.267044682913	1
5	23355	465.274692933433	3
5	23359	465.275058266766	1
5	23383	465.630858726362	3
5	23387	465.631224059695	1
5	23410	466.071674221519	3
5	23416	466.071696888186	1
5	23433	466.247451839598	3
5	23437	466.247817172931	1
5	23473	467.0036181266	3
5	23477	467.003983459933	1
5	23564	469.556094711528	3
5	23568	469.556460044861	1
5	23583	469.64985010167	3
5	23587	469.650215435003	1
5	23614	470.170628983876	3
5	23618	470.170994317209	1
5	23630	470.195242629081	3
5	23634	470.195607962414	1
5	23661	470.614721971938	3
5	23665	470.615087305271	1
5	23685	470.96126100526	3
5	23691	470.961283671927	1
5	23720	471.588194567037	3
5	23724	471.58855990037	1
5	23847	474.798464423032	3
5	23853	474.798487089699	1
5	23873	475.057588561159	3
5	23877	475.057953894492	1
5	23892	475.16230083795	3
5	23896	475.162666171283	1
5	23920	475.504475540587	3
5	23924	475.50484087392	1
5	23950	476.046377110078	3
5	23956	476.046399776745	1
5	23973	476.278992354085	3
5	23977	476.279357687418	1
5	24095	479.252200808446	3
5	24099	479.252566141779	1
5	24120	479.509785683875	3
5	24124	479.510151017208	1
5	24154	480.116498114731	3
5	24158	480.116863448064	1
5	24275	483.695000022001	3
5	24279	483.695365355334	1
5	24345	485.489673187297	3
5	24349	485.49003852063	1
5	24399	486.707401276357	3
5	24405	486.707423943024	1
5	24445	487.765948798155	3
5	24451	487.765971464822	1
5	24484	487.95231736917	3
5	24488	487.952682702503	1
5	24551	489.632599701719	3
5	24555	489.632965035052	1
5	24588	490.345556154695	3
5	24592	490.345921488028	1
5	24616	490.751969008138	3
5	24620	490.752334341471	1
5	24664	491.876117900682	3
5	24670	491.876140567349	1
5	24696	492.316625488246	3
5	24700	492.316990821579	1
5	24733	493.098509885911	3
5	24737	493.098875219244	1
5	24893	497.824904889591	3
5	24897	497.825270222924	1
5	24924	498.307957894834	3
5	24928	498.308323228167	1
5	24972	499.438796737136	3
5	24978	499.438819403803	1
5	25020	499.951311076884	3
5	25024	499.951676410217	1
6	0	0	1
6	350	10.928446163889	2
6	353	10.928468830556	1
6	953	21.956079867668	2
6	956	21.956102534335	1
6	1593	34.737647436559	2
6	1596	34.737670103226	1
6	2102	44.299150796141	2
6	2105	44.299173462808	1
6	2642	55.830551118124	2
6	2645	55.830573784791	1
6	3000	62.443646229803	2
6	3003	62.44366889647	1
6	3338	69.40946979681	2
6	3341	69.409492463477	1
6	4053	83.191404482349	2
6	4056	83.191427149016	1
6	4569	93.950869434047	2
6	4572	93.950892100714	1
6	4974	102.648950391449	2
6	4977	102.648973058116	1
6	5461	113.569369656034	2
6	5464	113.569392322701	1
6	5942	122.687571074348	2
6	5945	122.687593741015	1
6	6306	127.879503080621	2
6	6309	127.879525747288	1
6	6878	139.400535824243	2
6	6881	139.40055849091	1
6	7634	153.44701326685	2
6	7637	153.447035933517	1
6	8027	160.163310042117	2
6	8030	160.163332708784	1
6	8356	166.810251607094	2
6	8359	166.810274273761	1
6	8869	177.709351384547	2
6	8872	177.709374051214	1
6	9133	183.562307055109	2
6	9136	183.562329721776	1
6	9751	194.738886246924	2
6	9754	194.738908913591	1
6	10168	202.985715973192	2
6	10171	202.985738639859	1
6	10870	217.459421919194	2
6	10873	217.459444585861	1
6	11292	224.208510641475	2
6	11295	224.208533308142	1
6	11793	234.730435356033	2
6	11796	234.7304580227	1
6	12194	242.547736398411	2
6	12197	242.547759065078	1
6	12680	252.470418796876	2
6	12683	252.470441463543	1
6	13399	267.32074160129	2
6	13402	267.320764267957	1
6	14180	280.061214964373	2
6	14183	280.06123763104	1
6	14660	289.646360501649	2
6	14663	289.646383168316	1
6	15412	302.420436081013	2
6	15415	302.42045874768	1
6	16029	313.915066397751	2
6	16032	313.915089064418	1
6	16435	322.192270373928	2
6	16438	322.192293040595	1
6	17097	336.72948418651	2
6	17100	336.729506853177	1
6	17606	346.203267180829	2
6	17609	346.203289847496	1
6	17911	352.188047214879	2
6	17914	352.188069881546	1
6	18446	361.476004405415	2
6	18449	361.476027072082	1
6	19060	372.87624595687	2
6	19063	372.876268623537	1
6	19603	386.162815114951	2
6	19606	386.162837781618	1
6	20139	398.134231218139	2
6	20142	398.134253884806	1
6	20498	404.272397609895	2
6	20501	404.272420276562	1
6	21076	417.664288817907	2
6	21079	417.664311484574	1
6	21409	423.982809172014	2
6	21412	423.982831838681	1
6	21653	429.983129694594	2
6	21656	429.983152361261	1
6	21921	435.176135739313	2
6	21924	435.17615840598	1
6	22605	449.93365262868	2
6	22608	449.933675295347	1
6	22958	457.470077853651	2
6	22961	457.470100520318	1
6	23745	471.917152639945	2
6	23748	471.917175306612	1
6	24070	479.014652154875	2
6	24073	479.014674821542	1
6	24465	487.903326486704	2
6	24468	487.903349153371	1
6	24998	499.868150772528	2
6	25001	499.868173439195	1
7	0	0	1
7	321	10.488139685613	3
7	327	10.48816235228	1
7	352	10.92845063819	3
7	358	10.928473304857	1
7	373	11.000004667092	3
7	380	11.000370000425	1
7	410	11.787205819432	3
7	417	11.787571152765	1
7	460	12.338254318946	3
7	467	12.338619652279	1
7	491	12.823382496253	3
7	498	12.823747829586	1
7	516	13.176541644372	3
7	523	13.176906977705	1
7	535	13.23492631479	3
7	542	13.235291648123	1
7	560	13.553282462885	3
7	567	13.553647796218	1
7	597	14.202728826756	3
7	604	14.203094160089	1
7	661	15.874940065155	3
7	668	15.875305398488	1
7	698	16.528822646676	3
7	705	16.529187980009	1
7	729	17.027694666851	3
7	736	17.028060000184	1
7	799	18.836063964031	3
7	806	18.836429297364	1
7	827	19.247641967369	3
7	834	19.248007300702	1
7	873	20.292254491387	3
7	880	20.29261982472	1
7	904	20.75150263765	3
7	911	20.751867970983	1
7	955	21.956084482122	3
7	961	21.956107148789	1
7	1048	23.901672595439	3
7	1055	23.902037928772	1
7	1063	23.930797360559	3
7	1069	23.930820027226	1
7	1140	25.942564819975	3
7	1147	25.942930153308	1
7	1204	27.547804374249	3
7	1211	27.548169707582	1
7	1238	28.166733836913	3
7	1245	28.167099170246	1
7	1299	29.683269817803	3
7	1306	29.683635151136	1
7	1337	29.809144228226	3
7	1344	29.809509561559	1
7	1377	30.681465433683	3
7	1384	30.681830767016	1
7	1417	31.452300098921	3
7	1424	31.452665432254	1
7	1475	32.873664776878	3
7	1482	32.874030110211	1
7	1494	32.985610936885	3
7	1501	32.985976270218	1
7	1531	33.627305640501	3
7	1538	33.627670973834	1
7	1553	33.833508923231	3
7	1560	33.833874256564	1
7	1595	34.737652200215	3
7	1601	34.737674866882	1
7	1624	35.168799111091	3
7	1631	35.169164444424	1
7	1667	36.009133812332	3
7	1674	36.009499145665	1
7	1683	36.028102381294	3
7	1690	36.028467714627	1
7	1726	36.989483309032	3
7	1733	36.989848642365	1
7	1772	37.93647998036	3
7	1779	37.936845313693	1
7	1811	38.716980796814	3
7	1817	38.717003463481	1
7	1831	38.896027948685	3
7	1838	38.896393282018	1
7	1919	41.224941297911	3
7	1926	41.225306631244	1
7	1953	41.82268737367	3
[...]
42	25033	381.1	0
42	25033	381.2	0
42	25033	381.3	0
42	25033	381.4	0
42	25033	381.5	0
42	25033	381.6	0
42	25033	381.7	0
42	25033	381.8	0
42	25033	381.9	0
42	25033	382	0
42	25033	382.1	0
42	25033	382.2	0
42	25033	382.3	0
42	25033	382.4	0
42	25033	382.5	0
42	25033	382.6	0
42	25033	382.7	0
42	25033	382.8	0
42	25033	382.9	0
42	25033	383	0
42	25033	383.1	0
42	25033	383.2	0
42	25033	383.3	0
42	25033	383.4	0
42	25033	383.5	0
42	25033	383.6	0
42	25033	383.7	0
42	25033	383.8	0
42	25033	383.9	0
42	25033	384	0
42	25033	384.1	0
42	25033	384.2	0
42	25033	384.3	0
42	25033	384.4	0
42	25033	384.5	0
42	25033	384.6	0
42	25033	384.7	0
42	25033	384.8	0
42	25033	384.9	0
42	25033	385	0
42	25033	385.1	0
42	25033	385.2	0
42	25033	385.3	0
42	25033	385.4	0
42	25033	385.5	0
42	25033	385.6	0
42	25033	385.7	0
42	25033	385.8	0
42	25033	385.9	0
42	25033	386	0
42	25033	386.1	0
42	25033	386.2	0
42	25033	386.3	0
42	25033	386.4	0
42	25033	386.5	0
42	25033	386.6	0
42	25033	386.7	0
42	25033	386.8	0
42	25033	386.9	0
42	25033	387	0
42	25033	387.1	0
42	25033	387.2	0
42	25033	387.3	0
42	25033	387.4	0
42	25033	387.5	0
42	25033	387.6	0
42	25033	387.7	0
42	25033	387.8	0
42	25033	387.9	0
42	25033	388	0
42	25033	388.1	0
42	25033	388.2	0
42	25033	388.3	0
42	25033	388.4	0
42	25033	388.5	0
42	25033	388.6	0
42	25033	388.7	0
42	25033	388.8	0
42	25033	388.9	0
42	25033	389	0
42	25033	389.1	0
42	25033	389.2	0
42	25033	389.3	0
42	25033	389.4	0
42	25033	389.5	0
42	25033	389.6	0
42	25033	389.7	0
42	25033	389.8	0
42	25033	389.9	0
42	25033	390	0
42	25033	390.1	0
42	25033	390.2	0
42	25033	390.3	0
42	25033	390.4	0
42	25033	390.5	0
42	25033	390.6	0
42	25033	390.7	0
42	25033	390.8	0
42	25033	390.9	0
42	25033	391	0
42	25033	391.1	0
42	25033	391.2	0
42	25033	391.3	0
42	25033	391.4	0
42	25033	391.5	0
42	25033	391.6	0
42	25033	391.7	0
42	25033	391.8	0
42	25033	391.9	0
42	25033	392	0
42	25033	392.1	0
42	25033	392.2	0
42	25033	392.3	0
42	25033	392.4	0
42	25033	392.5	0
42	25033	392.6	0
42	25033	392.7	0
42	25033	392.8	0
42	25033	392.9	0
42	25033	393	0
42	25033	393.1	0
42	25033	393.2	0
42	25033	393.3	0
42	25033	393.4	0
42	25033	393.5	0
42	25033	393.6	0
42	25033	393.7	0
42	25033	393.8	0
42	25033	393.9	0
42	25033	394	0
42	25033	394.1	0
42	25033	394.2	0
42	25033	394.3	0
42	25033	394.4	0
42	25033	394.5	0
42	25033	394.6	0
42	25033	394.7	0
42	25033	394.8	0
42	25033	394.9	0
42	25033	395	0
42	25033	395.1	0
42	25033	395.2	0
42	25033	395.3	0
42	25033	395.4	0
42	25033	395.5	0
42	25033	395.6	0
42	25033	395.7	0
42	25033	395.8	0
42	25033	395.9	0
42	25033	396	0
42	25033	396.1	0
42	25033	396.2	0
42	25033	396.3	0
42	25033	396.4	0
42	25033	396.5	0
42	25033	396.6	0
42	25033	396.7	0
42	25033	396.8	0
42	25033	396.9	0
42	25033	397	0
42	25033	397.1	0
42	25033	397.2	0
42	25033	397.3	0
42	25033	397.4	0
42	25033	397.5	0
42	25033	397.6	0
42	25033	397.7	0
42	25033	397.8	0
42	25033	397.9	0
42	25033	398	0
42	25033	398.1	0
42	25033	398.2	0
42	25033	398.3	0
42	25033	398.4	0
42	25033	398.5	0
42	25033	398.6	0
42	25033	398.7	0
42	25033	398.8	0
42	25033	398.9	0
42	25033	399	0
42	25033	399.1	0
42	25033	399.2	0
42	25033	399.3	0
42	25033	399.4	0
42	25033	399.5	0
42	25033	399.6	0
42	25033	399.7	0
42	25033	399.8	0
42	25033	399.9	0
42	25033	400	0
42	25033	400.1	0
42	25033	400.2	0
42	25033	400.3	0
42	25033	400.4	0
42	25033	400.5	0
42	25033	400.6	0
42	25033	400.7	0
42	25033	400.8	0
42	25033	400.9	0
42	25033	401	0
42	25033	401.1	0
42	25033	401.2	0
42	25033	401.3	0
42	25033	401.4	0
42	25033	401.5	0
42	25033	401.6	0
42	25033	401.7	0
42	25033	401.8	0
42	25033	401.9	0
42	25033	402	0
42	25033	402.1	0
42	25033	402.2	0
42	25033	402.3	0
42	25033	402.4	0
42	25033	402.5	0
42	25033	402.6	0
42	25033	402.7	0
42	25033	402.8	0
42	25033	402.9	0
42	25033	403	0
42	25033	403.1	0
42	25033	403.2	0
42	25033	403.3	0
42	25033	403.4	0
42	25033	403.5	0
42	25033	403.6	0
42	25033	403.7	0
42	25033	403.8	0
42	25033	403.9	0
42	25033	404	0
42	25033	404.1	0
42	25033	404.2	0
42	25033	404.3	0
42	25033	404.4	0
42	25033	404.5	0
42	25033	404.6	0
42	25033	404.7	0
42	25033	404.8	0
42	25033	404.9	0
42	25033	405	0
42	25033	405.1	0
42	25033	405.2	0
42	25033	405.3	0
42	25033	405.4	0
42	25033	405.5	0
42	25033	405.6	0
42	25033	405.7	0
42	25033	405.8	0
42	25033	405.9	0
42	25033	406	0
42	25033	406.1	0
42	25033	406.2	0
42	25033	406.3	0
42	25033	406.4	0
42	25033	406.5	0
42	25033	406.6	0
42	25033	406.7	0
42	25033	406.8	0
42	25033	406.9	0
42	25033	407	0
42	25033	407.1	0
42	25033	407.2	0
42	25033	407.3	0
42	25033	407.4	0
42	25033	407.5	0
42	25033	407.6	0
42	25033	407.7	0
42	25033	407.8	0
42	25033	407.9	0
42	25033	408	0
42	25033	408.1	0
42	25033	408.2	0
42	25033	408.3	0
42	25033	408.4	0
42	25033	408.5	0
42	25033	408.6	0
42	25033	408.7	0
42	25033	408.8	0
42	25033	408.9	0
42	25033	409	0
42	25033	409.1	0
42	25033	409.2	0
42	25033	409.3	0
42	25033	409.4	0
42	25033	409.5	0
42	25033	409.6	0
42	25033	409.7	0
42	25033	409.8	0
42	25033	409.9	0
42	25033	410	0
42	25033	410.1	0
42	25033	410.2	0
42	25033	410.3	0
42	25033	410.4	0
42	25033	410.5	0
42	25033	410.6	0
42	25033	410.7	0
42	25033	410.8	0
42	25033	410.9	0
42	25033	411	0
42	25033	411.1	0
42	25033	411.2	0
42	25033	411.3	0
42	25033	411.4	0
42	25033	411.5	0
42	25033	411.6	0
42	25033	411.7	0
42	25033	411.8	0
42	25033	411.9	0
42	25033	412	0
42	25033	412.1	0
42	25033	412.2	0
42	25033	412.3	0
42	25033	412.4	0
42	25033	412.5	0
42	25033	412.6	0
42	25033	412.7	0
42	25033	412.8	0
42	25033	412.9	0
42	25033	413	0
42	25033	413.1	0
42	25033	413.2	0
42	25033	413.3	0
42	25033	413.4	0
42	25033	413.5	0
42	25033	413.6	0
42	25033	413.7	0
42	25033	413.8	0
42	25033	413.9	0
42	25033	414	0
42	25033	414.1	0
42	25033	414.2	0
42	25033	414.3	0
42	25033	414.4	0
42	25033	414.5	0
42	25033	414.6	0
42	25033	414.7	0
42	25033	414.8	0
42	25033	414.9	0
42	25033	415	0
42	25033	415.1	0
42	25033	415.2	0
42	25033	415.3	0
42	25033	415.4	0
42	25033	415.5	0
42	25033	415.6	0
42	25033	415.7	0
42	25033	415.8	0
42	25033	415.9	0
42	25033	416	0
42	25033	416.1	0
42	25033	416.2	0
42	25033	416.3	0
42	25033	416.4	0
42	25033	416.5	0
42	25033	416.6	0
42	25033	416.7	0
42	25033	416.8	0
42	25033	416.9	0
42	25033	417	0
42	25033	417.1	0
42	25033	417.2	0
42	25033	417.3	0
42	25033	417.4	0
42	25033	417.5	0
42	25033	417.6	0
42	25033	417.7	0
42	25033	417.8	0
42	25033	417.9	0
42	25033	418	0
42	25033	418.1	0
42	25033	418.2	0
42	25033	418.3	0
42	25033	418.4	0
42	25033	418.5	0
42	25033	418.6	0
42	25033	418.7	0
42	25033	418.8	0
42	25033	418.9	0
42	25033	419	0
42	25033	419.1	0
42	25033	419.2	0
42	25033	419.3	0
42	25033	419.4	0
42	25033	419.5	0
42	25033	419.6	0
42	25033	419.7	0
42	25033	419.8	0
42	25033	419.9	0
42	25033	420	0
42	25033	420.1	0
42	25033	420.2	0
42	25033	420.3	0
42	25033	420.4	0
42	25033	420.5	0
42	25033	420.6	0
42	25033	420.7	0
42	25033	420.8	0
42	25033	420.9	0
42	25033	421	0
42	25033	421.1	0
42	25033	421.2	0
42	25033	421.3	0
42	25033	421.4	0
42	25033	421.5	0
42	25033	421.6	0
42	25033	421.7	0
42	25033	421.8	0
42	25033	421.9	0
42	25033	422	0
42	25033	422.1	0
42	25033	422.2	0
42	25033	422.3	0
42	25033	422.4	0
42	25033	422.5	0
42	25033	422.6	0
42	25033	422.7	0
42	25033	422.8	0
42	25033	422.9	0
42	25033	423	0
42	25033	423.1	0
42	25033	423.2	0
42	25033	423.3	0
42	25033	423.4	0
42	25033	423.5	0
42	25033	423.6	0
42	25033	423.7	0
42	25033	423.8	0
42	25033	423.9	0
42	25033	424	0
42	25033	424.1	0
42	25033	424.2	0
42	25033	424.3	0
42	25033	424.4	0
42	25033	424.5	0
42	25033	424.6	0
42	25033	424.7	0
42	25033	424.8	0
42	25033	424.9	0
42	25033	425	0
42	25033	425.1	0
42	25033	425.2	0
42	25033	425.3	0
42	25033	425.4	0
42	25033	425.5	0
42	25033	425.6	0
42	25033	425.7	0
42	25033	425.8	0
42	25033	425.9	0
42	25033	426	0
42	25033	426.1	0
42	25033	426.2	0
42	25033	426.3	0
42	25033	426.4	0
42	25033	426.5	0
42	25033	426.6	0
42	25033	426.7	0
42	25033	426.8	0
42	25033	426.9	0
42	25033	427	0
42	25033	427.1	0
42	25033	427.2	0
42	25033	427.3	0
42	25033	427.4	0
42	25033	427.5	0
42	25033	427.6	0
42	25033	427.7	0
42	25033	427.8	0
42	25033	427.9	0
42	25033	428	0
42	25033	428.1	0
42	25033	428.2	0
42	25033	428.3	0
42	25033	428.4	0
42	25033	428.5	0
42	25033	428.6	0
42	25033	428.7	0
42	25033	428.8	0
42	25033	428.9	0
42	25033	429	0
42	25033	429.1	0
42	25033	429.2	0
42	25033	429.3	0
42	25033	429.4	0
42	25033	429.5	0
42	25033	429.6	0
42	25033	429.7	0
42	25033	429.8	0
42	25033	429.9	0
42	25033	430	0
42	25033	430.1	0
42	25033	430.2	0
42	25033	430.3	0
42	25033	430.4	0
42	25033	430.5	0
42	25033	430.6	0
42	25033	430.7	0
42	25033	430.8	0
42	25033	430.9	0
42	25033	431	0
42	25033	431.1	0
42	25033	431.2	0
42	25033	431.3	0
42	25033	431.4	0
42	25033	431.5	0
42	25033	431.6	0
42	25033	431.7	0
42	25033	431.8	0
42	25033	431.9	0
42	25033	432	0
42	25033	432.1	0
42	25033	432.2	0
42	25033	432.3	0
42	25033	432.4	0
42	25033	432.5	0
42	25033	432.6	0
42	25033	432.7	0
42	25033	432.8	0
42	25033	432.9	0
42	25033	433	0
42	25033	433.1	0
42	25033	433.2	0
42	25033	433.3	0
42	25033	433.4	0
42	25033	433.5	0
42	25033	433.6	0
42	25033	433.7	0
42	25033	433.8	0
42	25033	433.9	0
42	25033	434	0
42	25033	434.1	0
42	25033	434.2	0
42	25033	434.3	0
42	25033	434.4	0
42	25033	434.5	0
42	25033	434.6	0
42	25033	434.7	0
42	25033	434.8	0
42	25033	434.9	0
42	25033	435	0
42	25033	435.1	0
42	25033	435.2	0
42	25033	435.3	0
42	25033	435.4	0
42	25033	435.5	0
42	25033	435.6	0
42	25033	435.7	0
42	25033	435.8	0
42	25033	435.9	0
42	25033	436	0
42	25033	436.1	0
42	25033	436.2	0
42	25033	436.3	0
42	25033	436.4	0
42	25033	436.5	0
42	25033	436.6	0
42	25033	436.7	0
42	25033	436.8	0
42	25033	436.9	0
42	25033	437	0
42	25033	437.1	0
42	25033	437.2	0
42	25033	437.3	0
42	25033	437.4	0
42	25033	437.5	0
42	25033	437.6	0
42	25033	437.7	0
42	25033	437.8	0
42	25033	437.9	0
42	25033	438	0
42	25033	438.1	0
42	25033	438.2	0
42	25033	438.3	0
42	25033	438.4	0
42	25033	438.5	0
42	25033	438.6	0
42	25033	438.7	0
42	25033	438.8	0
42	25033	438.9	0
42	25033	439	0
42	25033	439.1	0
42	25033	439.2	0
42	25033	439.3	0
42	25033	439.4	0
42	25033	439.5	0
42	25033	439.6	0
42	25033	439.7	0
42	25033	439.8	0
42	25033	439.9	0
42	25033	440	0
42	25033	440.1	0
42	25033	440.2	0
42	25033	440.3	0
42	25033	440.4	0
42	25033	440.5	0
42	25033	440.6	0
42	25033	440.7	0
42	25033	440.8	0
42	25033	440.9	0
42	25033	441	0
42	25033	441.1	0
42	25033	441.2	0
42	25033	441.3	0
42	25033	441.4	0
42	25033	441.5	0
42	25033	441.6	0
42	25033	441.7	0
42	25033	441.8	0
42	25033	441.9	0
42	25033	442	0
42	25033	442.1	0
42	25033	442.2	0
42	25033	442.3	0
42	25033	442.4	0
42	25033	442.5	0
42	25033	442.6	0
42	25033	442.7	0
42	25033	442.8	0
42	25033	442.9	0
42	25033	443	0
42	25033	443.1	0
42	25033	443.2	0
42	25033	443.3	0
42	25033	443.4	0
42	25033	443.5	0
42	25033	443.6	0
42	25033	443.7	0
42	25033	443.8	0
42	25033	443.9	0
42	25033	444	0
42	25033	444.1	0
42	25033	444.2	0
42	25033	444.3	0
42	25033	444.4	0
42	25033	444.5	0
42	25033	444.6	0
42	25033	444.7	0
42	25033	444.8	0
42	25033	444.9	0
42	25033	445	0
42	25033	445.1	0
42	25033	445.2	0
42	25033	445.3	0
42	25033	445.4	0
42	25033	445.5	0
42	25033	445.6	0
42	25033	445.7	0
42	25033	445.8	0
42	25033	445.9	0
42	25033	446	0
42	25033	446.1	0
42	25033	446.2	0
42	25033	446.3	0
42	25033	446.4	0
42	25033	446.5	0
42	25033	446.6	0
42	25033	446.7	0
42	25033	446.8	0
42	25033	446.9	0
42	25033	447	0
42	25033	447.1	0
42	25033	447.2	0
42	25033	447.3	0
42	25033	447.4	0
42	25033	447.5	0
42	25033	447.6	0
42	25033	447.7	0
42	25033	447.8	0
42	25033	447.9	0
42	25033	448	0
42	25033	448.1	0
42	25033	448.2	0
42	25033	448.3	0
42	25033	448.4	0
42	25033	448.5	0
42	25033	448.6	0
42	25033	448.7	0
42	25033	448.8	0
42	25033	448.9	0
42	25033	449	0
42	25033	449.1	0
42	25033	449.2	0
42	25033	449.3	0
42	25033	449.4	0
42	25033	449.5	0
42	25033	449.6	0
42	25033	449.7	0
42	25033	449.8	0
42	25033	449.9	0
42	25033	450	0
42	25033	450.1	0
42	25033	450.2	0
42	25033	450.3	0
42	25033	450.4	0
42	25033	450.5	0
42	25033	450.6	0
42	25033	450.7	0
42	25033	450.8	0
42	25033	450.9	0
42	25033	451	0
42	25033	451.1	0
42	25033	451.2	0
42	25033	451.3	0
42	25033	451.4	0
42	25033	451.5	0
42	25033	451.6	0
42	25033	451.7	0
42	25033	451.8	0
42	25033	451.9	0
42	25033	452	0
42	25033	452.1	0
42	25033	452.2	0
42	25033	452.3	0
42	25033	452.4	0
42	25033	452.5	0
42	25033	452.6	0
42	25033	452.7	0
42	25033	452.8	0
42	25033	452.9	0
42	25033	453	0
42	25033	453.1	0
42	25033	453.2	0
42	25033	453.3	0
42	25033	453.4	0
42	25033	453.5	0
42	25033	453.6	0
42	25033	453.7	0
42	25033	453.8	0
42	25033	453.9	0
42	25033	454	0
42	25033	454.1	0
42	25033	454.2	0
42	25033	454.3	0
42	25033	454.4	0
42	25033	454.5	0
42	25033	454.6	0
42	25033	454.7	0
42	25033	454.8	0
42	25033	454.9	0
42	25033	455	0
42	25033	455.1	0
42	25033	455.2	0
42	25033	455.3	0
42	25033	455.4	0
42	25033	455.5	0
42	25033	455.6	0
42	25033	455.7	0
42	25033	455.8	0
42	25033	455.9	0
42	25033	456	0
42	25033	456.1	0
42	25033	456.2	0
42	25033	456.3	0
42	25033	456.4	0
42	25033	456.5	0
42	25033	456.6	0
42	25033	456.7	0
42	25033	456.8	0
42	25033	456.9	0
42	25033	457	0
42	25033	457.1	0
42	25033	457.2	0
42	25033	457.3	0
42	25033	457.4	0
42	25033	457.5	0
42	25033	457.6	0
42	25033	457.7	0
42	25033	457.8	0
42	25033	457.9	0
42	25033	458	0
42	25033	458.1	0
42	25033	458.2	0
42	25033	458.3	0
42	25033	458.4	0
42	25033	458.5	0
42	25033	458.6	0
42	25033	458.7	0
42	25033	458.8	0
42	25033	458.9	0
42	25033	459	0
42	25033	459.1	0
42	25033	459.2	0
42	25033	459.3	0
42	25033	459.4	0
42	25033	459.5	0
42	25033	459.6	0
42	25033	459.7	0
42	25033	459.8	0
42	25033	459.9	0
42	25033	460	0
42	25033	460.1	0
42	25033	460.2	0
42	25033	460.3	0
42	25033	460.4	0
42	25033	460.5	0
42	25033	460.6	0
42	25033	460.7	0
42	25033	460.8	0
42	25033	460.9	0
42	25033	461	0
42	25033	461.1	0
42	25033	461.2	0
42	25033	461.3	0
42	25033	461.4	0
42	25033	461.5	0
42	25033	461.6	0
42	25033	461.7	0
42	25033	461.8	0
42	25033	461.9	0
42	25033	462	0
42	25033	462.1	0
42	25033	462.2	0
42	25033	462.3	0
42	25033	462.4	0
42	25033	462.5	0
42	25033	462.6	0
42	25033	462.7	0
42	25033	462.8	0
42	25033	462.9	0
42	25033	463	0
42	25033	463.1	0
42	25033	463.2	0
42	25033	463.3	0
42	25033	463.4	0
42	25033	463.5	0
42	25033	463.6	0
42	25033	463.7	0
42	25033	463.8	0
42	25033	463.9	0
42	25033	464	0
42	25033	464.1	0
42	25033	464.2	0
42	25033	464.3	0
42	25033	464.4	0
42	25033	464.5	0
42	25033	464.6	0
42	25033	464.7	0
42	25033	464.8	0
42	25033	464.9	0
42	25033	465	0
42	25033	465.1	0
42	25033	465.2	0
42	25033	465.3	0
42	25033	465.4	0
42	25033	465.5	0
42	25033	465.6	0
42	25033	465.7	0
42	25033	465.8	0
42	25033	465.9	0
42	25033	466	0
42	25033	466.1	0
42	25033	466.2	0
42	25033	466.3	0
42	25033	466.4	0
42	25033	466.5	0
42	25033	466.6	0
42	25033	466.7	0
42	25033	466.8	0
42	25033	466.9	0
42	25033	467	0
42	25033	467.1	0
42	25033	467.2	0
42	25033	467.3	0
42	25033	467.4	0
42	25033	467.5	0
42	25033	467.6	0
42	25033	467.7	0
42	25033	467.8	0
42	25033	467.9	0
42	25033	468	0
42	25033	468.1	0
42	25033	468.2	0
42	25033	468.3	0
42	25033	468.4	0
42	25033	468.5	0
42	25033	468.6	0
42	25033	468.7	0
42	25033	468.8	0
42	25033	468.9	0
42	25033	469	0
42	25033	469.1	0
42	25033	469.2	0
42	25033	469.3	0
42	25033	469.4	0
42	25033	469.5	0
42	25033	469.6	0
42	25033	469.7	0
42	25033	469.8	0
42	25033	469.9	0
42	25033	470	0
42	25033	470.1	0
42	25033	470.2	0
42	25033	470.3	0
42	25033	470.4	0
42	25033	470.5	0
42	25033	470.6	0
42	25033	470.7	0
42	25033	470.8	0
42	25033	470.9	0
42	25033	471	0
42	25033	471.1	0
42	25033	471.2	0
42	25033	471.3	0
42	25033	471.4	0
42	25033	471.5	0
42	25033	471.6	0
42	25033	471.7	0
42	25033	471.8	0
42	25033	471.9	0
42	25033	472	0
42	25033	472.1	0
42	25033	472.2	0
42	25033	472.3	0
42	25033	472.4	0
42	25033	472.5	0
42	25033	472.6	0
42	25033	472.7	0
42	25033	472.8	0
42	25033	472.9	0
42	25033	473	0
42	25033	473.1	0
42	25033	473.2	0
42	25033	473.3	0
42	25033	473.4	0
42	25033	473.5	0
42	25033	473.6	0
42	25033	473.7	0
42	25033	473.8	0
42	25033	473.9	0
42	25033	474	0
42	25033	474.1	0
42	25033	474.2	0
42	25033	474.3	0
42	25033	474.4	0
42	25033	474.5	0
42	25033	474.6	0
42	25033	474.7	0
42	25033	474.8	0
42	25033	474.9	0
42	25033	475	0
42	25033	475.1	0
42	25033	475.2	0
42	25033	475.3	0
42	25033	475.4	0
42	25033	475.5	0
42	25033	475.6	0
42	25033	475.7	0
42	25033	475.8	0
42	25033	475.9	0
42	25033	476	0
42	25033	476.1	0
42	25033	476.2	0
42	25033	476.3	0
42	25033	476.4	0
42	25033	476.5	0
42	25033	476.6	0
42	25033	476.7	0
42	25033	476.8	0
42	25033	476.9	0
42	25033	477	0
42	25033	477.1	0
42	25033	477.2	0
42	25033	477.3	0
42	25033	477.4	0
42	25033	477.5	0
42	25033	477.6	0
42	25033	477.7	0
42	25033	477.8	0
42	25033	477.9	0
42	25033	478	0
42	25033	478.1	0
42	25033	478.2	0
42	25033	478.3	0
42	25033	478.4	0
42	25033	478.5	0
42	25033	478.6	0
42	25033	478.7	0
42	25033	478.8	0
42	25033	478.9	0
42	25033	479	0
42	25033	479.1	0
42	25033	479.2	0
42	25033	479.3	0
42	25033	479.4	0
42	25033	479.5	0
42	25033	479.6	0
42	25033	479.7	0
42	25033	479.8	0
42	25033	479.9	0
42	25033	480	0
42	25033	480.1	0
42	25033	480.2	0
42	25033	480.3	0
42	25033	480.4	0
42	25033	480.5	0
42	25033	480.6	0
42	25033	480.7	0
42	25033	480.8	0
42	25033	480.9	0
42	25033	481	0
42	25033	481.1	0
42	25033	481.2	0
42	25033	481.3	0
42	25033	481.4	0
42	25033	481.5	0
42	25033	481.6	0
42	25033	481.7	0
42	25033	481.8	0
42	25033	481.9	0
42	25033	482	0
42	25033	482.1	0
42	25033	482.2	0
42	25033	482.3	0
42	25033	482.4	0
42	25033	482.5	0
42	25033	482.6	0
42	25033	482.7	0
42	25033	482.8	0
42	25033	482.9	0
42	25033	483	0
42	25033	483.1	0
42	25033	483.2	0
42	25033	483.3	0
42	25033	483.4	0
42	25033	483.5	0
42	25033	483.6	0
42	25033	483.7	0
42	25033	483.8	0
42	25033	483.9	0
42	25033	484	0
42	25033	484.1	0
42	25033	484.2	0
42	25033	484.3	0
42	25033	484.4	0
42	25033	484.5	0
42	25033	484.6	0
42	25033	484.7	0
42	25033	484.8	0
42	25033	484.9	0
42	25033	485	0
42	25033	485.1	0
42	25033	485.2	0
42	25033	485.3	0
42	25033	485.4	0
42	25033	485.5	0
42	25033	485.6	0
42	25033	485.7	0
42	25033	485.8	0
42	25033	485.9	0
42	25033	486	0
42	25033	486.1	0
42	25033	486.2	0
42	25033	486.3	0
42	25033	486.4	0
42	25033	486.5	0
42	25033	486.6	0
42	25033	486.7	0
42	25033	486.8	0
42	25033	486.9	0
42	25033	487	0
42	25033	487.1	0
42	25033	487.2	0
42	25033	487.3	0
42	25033	487.4	0
42	25033	487.5	0
42	25033	487.6	0
42	25033	487.7	0
42	25033	487.8	0
42	25033	487.9	0
42	25033	488	0
42	25033	488.1	0
42	25033	488.2	0
42	25033	488.3	0
42	25033	488.4	0
42	25033	488.5	0
42	25033	488.6	0
42	25033	488.7	0
42	25033	488.8	0
42	25033	488.9	0
42	25033	489	0
42	25033	489.1	0
42	25033	489.2	0
42	25033	489.3	0
42	25033	489.4	0
42	25033	489.5	0
42	25033	489.6	0
42	25033	489.7	0
42	25033	489.8	0
42	25033	489.9	0
42	25033	490	0
42	25033	490.1	0
42	25033	490.2	0
42	25033	490.3	0
42	25033	490.4	0
42	25033	490.5	0
42	25033	490.6	0
42	25033	490.7	0
42	25033	490.8	0
42	25033	490.9	0
42	25033	491	0
42	25033	491.1	0
42	25033	491.2	0
42	25033	491.3	0
42	25033	491.4	0
42	25033	491.5	0
42	25033	491.6	0
42	25033	491.7	0
42	25033	491.8	0
42	25033	491.9	0
42	25033	492	0
42	25033	492.1	0
42	25033	492.2	0
42	25033	492.3	0
42	25033	492.4	0
42	25033	492.5	0
42	25033	492.6	0
42	25033	492.7	0
42	25033	492.8	0
42	25033	492.9	0
42	25033	493	0
42	25033	493.1	0
42	25033	493.2	0
42	25033	493.3	0
42	25033	493.4	0
42	25033	493.5	0
42	25033	493.6	0
42	25033	493.7	0
42	25033	493.8	0
42	25033	493.9	0
42	25033	494	0
42	25033	494.1	0
42	25033	494.2	0
42	25033	494.3	0
42	25033	494.4	0
42	25033	494.5	0
42	25033	494.6	0
42	25033	494.7	0
42	25033	494.8	0
42	25033	494.9	0
42	25033	495	0
42	25033	495.1	0
42	25033	495.2	0
42	25033	495.3	0
42	25033	495.4	0
42	25033	495.5	0
42	25033	495.6	0
42	25033	495.7	0
42	25033	495.8	0
42	25033	495.9	0
42	25033	496	0
42	25033	496.1	0
42	25033	496.2	0
42	25033	496.3	0
42	25033	496.4	0
42	25033	496.5	0
42	25033	496.6	0
42	25033	496.7	0
42	25033	496.8	0
42	25033	496.9	0
42	25033	497	0
42	25033	497.1	0
42	25033	497.2	0
42	25033	497.3	0
42	25033	497.4	0
42	25033	497.5	0
42	25033	497.6	0
42	25033	497.7	0
42	25033	497.8	0
42	25033	497.9	0
42	25033	498	0
42	25033	498.1	0
42	25033	498.2	0
42	25033	498.3	0
42	25033	498.4	0
42	25033	498.5	0
42	25033	498.6	0
42	25033	498.7	0
42	25033	498.8	0
42	25033	498.9	0
42	25033	499	0
42	25033	499.1	0
42	25033	499.2	0
42	25033	499.3	0
42	25033	499.4	0
42	25033	499.5	0
42	25033	499.6	0
42	25033	499.7	0
42	25033	499.8	0
42	25033	499.9	0
42	25033	500	0

