file 2857266 1653925246                                         
version 2
run SecureSybil-0-20220530-17:40:26-71134
attr configname SecureSybil
attr datetime 20220530-17:40:26
attr experiment SecureSybil
attr inifile omnetpp.ini
attr iterationvars ""
attr iterationvarsf ""
attr measurement ""
attr network FanetSecureSybil
attr processid 71134
attr repetition 0
attr replication #0
attr resultdir results
attr runnumber 0
attr seedset 0
param *.attacker[*].mobility.typename "\"MassMobility\""
param *.attacker[*].mobility.changeInterval 1s
param *.attacker[*].mobility.initialMovementHeading "uniform(0deg, 360deg)"
param *.attacker[*].mobility.initialMovementElevation "uniform(-90deg, 90deg)"
param *.attacker[*].mobility.angleDelta uniform(-10deg,10deg)
param *.attacker[*].mobility.rotationAxisAngle uniform(-10deg,10deg)
param *.attacker[*].mobility.speed uniform(10mps,20mps)
param *.attacker[*].mobility.faceForward false
param *.attacker*.wlan[0].typename "\"AckingWirelessInterface\""
param *.attacker*.wlan[0].radio.transmitter.communicationRange 400m
param *.attacker*.wlan[0].radio.displayCommunicationRange true
param *.host[0].numApps 1
param *.host[0].app[0].typename "\"UdpBasicApp\""
param *.host[0].app[0].startTime 15s
param *.host[0].app[0].destAddresses "\"host[15]\""
param *.host[0].app[0].destPort 5000
param *.host[0].app[0].messageLength 1000B
param *.host[0].app[0].sendInterval exponential(1s)
param *.host[0].app[0].packetName "\"UDPdata\""
param *.host[15].numApps 1
param *.host[15].app[0].typename "\"UdpSink\""
param *.host[15].app[0].localPort 5000
param **.wlan[*].bitrate 24Mbps
param *.configurator.addStaticRoutes false
param **.netmaskRoutes "\"\""
param **.arp.typename "\"GlobalArp\""
param *.host*.wlan[0].typename "\"AckingWirelessInterface\""
param *.host*.wlan[0].radio.transmitter.communicationRange 400m
param *.host*.wlan[0].radio.displayCommunicationRange true
param *.visualizer.osgVisualizer.typename "\"IntegratedOsgVisualizer\""
param *.visualizer.osgVisualizer.sceneVisualizer.clearColor "\"skyblue\""
param *.visualizer.osgVisualizer.sceneVisualizer.sceneImage "\"showcases/desert\""
param *.visualizer.osgVisualizer.sceneVisualizer.sceneImageSize 5000m
param *.visualizer.osgVisualizer.sceneVisualizer.axisLength 1000m
param *.visualizer.osgVisualizer.sceneVisualizer.sceneMinX -2000m
param *.visualizer.osgVisualizer.sceneVisualizer.sceneMinY -2000m
param *.visualizer.osgVisualizer.sceneVisualizer.sceneMinZ 0m
param *.visualizer.osgVisualizer.sceneVisualizer.sceneMaxX 3000m
param *.visualizer.osgVisualizer.sceneVisualizer.sceneMaxY 3000m
param *.visualizer.osgVisualizer.sceneVisualizer.sceneMaxZ 1000m
param *.visualizer.osgVisualizer.networkNodeVisualizer.displayModuleName false
param *.visualizer.*.mobilityVisualizer.displayMobility true
param *.visualizer.*.mobilityVisualizer.displayPositions true
param *.visualizer.*.mobilityVisualizer.displayOrientations true
param *.visualizer.*.mobilityVisualizer.displayVelocities true
param *.visualizer.*.mobilityVisualizer.displayMovementTrails true
param *.visualizer.*.mobilityVisualizer.animationSpeed 1
param *.visualizer.*.packetDropVisualizer.displayPacketDrops false
param *.visualizer.*.packetDropVisualizer.labelFormat "\"%n/reason: %r\""
param *.visualizer.*.packetDropVisualizer.fadeOutTime 10s
param **.constraintAreaMinX 0m
param **.constraintAreaMinY 0m
param **.constraintAreaMinZ 40m
param **.constraintAreaMaxX 2500m
param **.constraintAreaMaxY 2000m
param **.constraintAreaMaxZ 200m
param *.visualizer.*.mediumVisualizer.signalPropagationAnimationSpeed 500/3e8
param *.visualizer.*.mediumVisualizer.signalTransmissionAnimationSpeed 50000/3e8
param *.visualizer.*.mediumVisualizer.displaySignals false
param *.visualizer.*.mediumVisualizer.displayTransmissions false
param *.visualizer.*.mediumVisualizer.displayReceptions false
param *.visualizer.*.mediumVisualizer.transmissionPlacementPriority 10
param *.visualizer.*.mediumVisualizer.receptionPlacementPriority 10
param *.visualizer.*.mediumVisualizer.displaySignals false
param *.visualizer.*.mediumVisualizer.signalFadingDistance 50m
param *.visualizer.*.mediumVisualizer.signalRingSize 50m
param *.visualizer.osgVisualizer.mediumVisualizer.signalShape "\"both\""
param *.host[*].osgModel "\"3d/drone.ive.100.scale.0,0,90.rot\""
param *.host[*].mobility.typename "\"MassMobility\""
param *.host[*].mobility.changeInterval 1s
param *.host[*].mobility.initialMovementHeading "uniform(0deg, 360deg)"
param *.host[*].mobility.initialMovementElevation "uniform(-90deg, 90deg)"
param *.host[*].mobility.angleDelta uniform(-10deg,10deg)
param *.host[*].mobility.rotationAxisAngle uniform(-10deg,10deg)
param *.host[*].mobility.speed uniform(10mps,20mps)
param *.host[*].mobility.faceForward false

vector 0 FanetSecureSybil.host[0].wlan[0].radio radioMode:vector ETV
attr interpolationmode sample-hold
attr source radioModeChanged
attr title "Radio mode, vector"
vector 1 FanetSecureSybil.host[1].wlan[0].radio radioMode:vector ETV
attr interpolationmode sample-hold
attr source radioModeChanged
attr title "Radio mode, vector"
vector 2 FanetSecureSybil.host[2].wlan[0].radio radioMode:vector ETV
attr interpolationmode sample-hold
attr source radioModeChanged
attr title "Radio mode, vector"
vector 3 FanetSecureSybil.host[3].wlan[0].radio radioMode:vector ETV
attr interpolationmode sample-hold
attr source radioModeChanged
attr title "Radio mode, vector"
vector 4 FanetSecureSybil.host[4].wlan[0].radio radioMode:vector ETV
attr interpolationmode sample-hold
attr source radioModeChanged
attr title "Radio mode, vector"
vector 5 FanetSecureSybil.host[5].wlan[0].radio radioMode:vector ETV
attr interpolationmode sample-hold
attr source radioModeChanged
attr title "Radio mode, vector"
vector 6 FanetSecureSybil.host[6].wlan[0].radio radioMode:vector ETV
attr interpolationmode sample-hold
attr source radioModeChanged
attr title "Radio mode, vector"
vector 7 FanetSecureSybil.host[7].wlan[0].radio radioMode:vector ETV
attr interpolationmode sample-hold
attr source radioModeChanged
attr title "Radio mode, vector"
vector 8 FanetSecureSybil.host[8].wlan[0].radio radioMode:vector ETV
attr interpolationmode sample-hold
attr source radioModeChanged
attr title "Radio mode, vector"
vector 9 FanetSecureSybil.host[9].wlan[0].radio radioMode:vector ETV
attr interpolationmode sample-hold
attr source radioModeChanged
attr title "Radio mode, vector"
vector 10 FanetSecureSybil.host[10].wlan[0].radio radioMode:vector ETV
attr interpolationmode sample-hold
attr source radioModeChanged
attr title "Radio mode, vector"
vector 11 FanetSecureSybil.host[11].wlan[0].radio radioMode:vector ETV
attr interpolationmode sample-hold
attr source radioModeChanged
attr title "Radio mode, vector"
vector 12 FanetSecureSybil.host[12].wlan[0].radio radioMode:vector ETV
attr interpolationmode sample-hold
attr source radioModeChanged
attr title "Radio mode, vector"
vector 13 FanetSecureSybil.host[13].wlan[0].radio radioMode:vector ETV
attr interpolationmode sample-hold
attr source radioModeChanged
attr title "Radio mode, vector"
vector 14 FanetSecureSybil.host[14].wlan[0].radio radioMode:vector ETV
attr interpolationmode sample-hold
attr source radioModeChanged
attr title "Radio mode, vector"
vector 15 FanetSecureSybil.host[15].wlan[0].radio radioMode:vector ETV
attr interpolationmode sample-hold
attr source radioModeChanged
attr title "Radio mode, vector"
vector 16 FanetSecureSybil.host[16].wlan[0].radio radioMode:vector ETV
attr interpolationmode sample-hold
attr source radioModeChanged
attr title "Radio mode, vector"
vector 17 FanetSecureSybil.host[17].wlan[0].radio radioMode:vector ETV
attr interpolationmode sample-hold
attr source radioModeChanged
attr title "Radio mode, vector"
vector 18 FanetSecureSybil.host[18].wlan[0].radio radioMode:vector ETV
attr interpolationmode sample-hold
attr source radioModeChanged
attr title "Radio mode, vector"
vector 19 FanetSecureSybil.host[19].wlan[0].radio radioMode:vector ETV
attr interpolationmode sample-hold
attr source radioModeChanged
attr title "Radio mode, vector"
vector 20 FanetSecureSybil.host[20].wlan[0].radio radioMode:vector ETV
attr interpolationmode sample-hold
attr source radioModeChanged
attr title "Radio mode, vector"
vector 21 FanetSecureSybil.host[21].wlan[0].radio radioMode:vector ETV
attr interpolationmode sample-hold
attr source radioModeChanged
attr title "Radio mode, vector"
vector 22 FanetSecureSybil.host[22].wlan[0].radio radioMode:vector ETV
attr interpolationmode sample-hold
attr source radioModeChanged
attr title "Radio mode, vector"
vector 23 FanetSecureSybil.host[23].wlan[0].radio radioMode:vector ETV
attr interpolationmode sample-hold
attr source radioModeChanged
attr title "Radio mode, vector"
vector 24 FanetSecureSybil.host[24].wlan[0].radio radioMode:vector ETV
attr interpolationmode sample-hold
attr source radioModeChanged
attr title "Radio mode, vector"
vector 25 FanetSecureSybil.host[25].wlan[0].radio radioMode:vector ETV
attr interpolationmode sample-hold
attr source radioModeChanged
attr title "Radio mode, vector"
vector 26 FanetSecureSybil.host[26].wlan[0].radio radioMode:vector ETV
attr interpolationmode sample-hold
attr source radioModeChanged
attr title "Radio mode, vector"
vector 27 FanetSecureSybil.host[27].wlan[0].radio radioMode:vector ETV
attr interpolationmode sample-hold
attr source radioModeChanged
attr title "Radio mode, vector"
vector 28 FanetSecureSybil.host[28].wlan[0].radio radioMode:vector ETV
attr interpolationmode sample-hold
attr source radioModeChanged
attr title "Radio mode, vector"
vector 29 FanetSecureSybil.host[29].wlan[0].radio radioMode:vector ETV
attr interpolationmode sample-hold
attr source radioModeChanged
attr title "Radio mode, vector"
vector 30 FanetSecureSybil.attacker[0].wlan[0].radio radioMode:vector ETV
attr interpolationmode sample-hold
attr source radioModeChanged
attr title "Radio mode, vector"
vector 31 FanetSecureSybil.attacker[1].wlan[0].radio radioMode:vector ETV
attr interpolationmode sample-hold
attr source radioModeChanged
attr title "Radio mode, vector"
vector 32 FanetSecureSybil.attacker[2].wlan[0].radio radioMode:vector ETV
attr interpolationmode sample-hold
attr source radioModeChanged
attr title "Radio mode, vector"
vector 33 FanetSecureSybil.attacker[3].wlan[0].radio radioMode:vector ETV
attr interpolationmode sample-hold
attr source radioModeChanged
attr title "Radio mode, vector"
vector 34 FanetSecureSybil.attacker[4].wlan[0].radio radioMode:vector ETV
attr interpolationmode sample-hold
attr source radioModeChanged
attr title "Radio mode, vector"
vector 35 FanetSecureSybil.attacker[5].wlan[0].radio radioMode:vector ETV
attr interpolationmode sample-hold
attr source radioModeChanged
attr title "Radio mode, vector"
vector 36 FanetSecureSybil.attacker[6].wlan[0].radio radioMode:vector ETV
attr interpolationmode sample-hold
attr source radioModeChanged
attr title "Radio mode, vector"
vector 37 FanetSecureSybil.attacker[7].wlan[0].radio radioMode:vector ETV
attr interpolationmode sample-hold
attr source radioModeChanged
attr title "Radio mode, vector"
vector 38 FanetSecureSybil.attacker[8].wlan[0].radio radioMode:vector ETV
attr interpolationmode sample-hold
attr source radioModeChanged
attr title "Radio mode, vector"
vector 39 FanetSecureSybil.attacker[9].wlan[0].radio radioMode:vector ETV
attr interpolationmode sample-hold
attr source radioModeChanged
attr title "Radio mode, vector"
vector 40 FanetSecureSybil.attacker[10].wlan[0].radio radioMode:vector ETV
attr interpolationmode sample-hold
attr source radioModeChanged
attr title "Radio mode, vector"
vector 41 FanetSecureSybil.attacker[11].wlan[0].radio radioMode:vector ETV
attr interpolationmode sample-hold
attr source radioModeChanged
attr title "Radio mode, vector"
vector 42 FanetSecureSybil.attacker[12].wlan[0].radio radioMode:vector ETV
attr interpolationmode sample-hold
attr source radioModeChanged
attr title "Radio mode, vector"
vector 43 FanetSecureSybil.attacker[13].wlan[0].radio radioMode:vector ETV
attr interpolationmode sample-hold
attr source radioModeChanged
attr title "Radio mode, vector"
vector 44 FanetSecureSybil.attacker[14].wlan[0].radio radioMode:vector ETV
attr interpolationmode sample-hold
attr source radioModeChanged
attr title "Radio mode, vector"
vector 45 FanetSecureSybil.attacker[15].wlan[0].radio radioMode:vector ETV
attr interpolationmode sample-hold
attr source radioModeChanged
attr title "Radio mode, vector"
vector 46 FanetSecureSybil.attacker[16].wlan[0].radio radioMode:vector ETV
attr interpolationmode sample-hold
attr source radioModeChanged
attr title "Radio mode, vector"
vector 47 FanetSecureSybil.attacker[17].wlan[0].radio radioMode:vector ETV
attr interpolationmode sample-hold
attr source radioModeChanged
attr title "Radio mode, vector"
vector 48 FanetSecureSybil.attacker[18].wlan[0].radio radioMode:vector ETV
attr interpolationmode sample-hold
attr source radioModeChanged
attr title "Radio mode, vector"
vector 49 FanetSecureSybil.attacker[19].wlan[0].radio radioMode:vector ETV
attr interpolationmode sample-hold
attr source radioModeChanged
attr title "Radio mode, vector"
vector 50 FanetSecureSybil.host[0].wlan[0].radio receptionState:vector ETV
attr interpolationmode sample-hold
attr source receptionStateChanged
attr title "Radio reception state, vector"
vector 51 FanetSecureSybil.host[0].wlan[0].radio transmissionState:vector ETV
attr interpolationmode sample-hold
attr source transmissionStateChanged
attr title "Radio transmission state, vector"
vector 52 FanetSecureSybil.host[1].wlan[0].radio receptionState:vector ETV
attr interpolationmode sample-hold
attr source receptionStateChanged
attr title "Radio reception state, vector"
vector 53 FanetSecureSybil.host[1].wlan[0].radio transmissionState:vector ETV
attr interpolationmode sample-hold
attr source transmissionStateChanged
attr title "Radio transmission state, vector"
vector 54 FanetSecureSybil.host[2].wlan[0].radio receptionState:vector ETV
attr interpolationmode sample-hold
attr source receptionStateChanged
attr title "Radio reception state, vector"
vector 55 FanetSecureSybil.host[2].wlan[0].radio transmissionState:vector ETV
attr interpolationmode sample-hold
attr source transmissionStateChanged
attr title "Radio transmission state, vector"
vector 56 FanetSecureSybil.host[3].wlan[0].radio receptionState:vector ETV
attr interpolationmode sample-hold
attr source receptionStateChanged
attr title "Radio reception state, vector"
vector 57 FanetSecureSybil.host[3].wlan[0].radio transmissionState:vector ETV
attr interpolationmode sample-hold
attr source transmissionStateChanged
attr title "Radio transmission state, vector"
vector 58 FanetSecureSybil.host[4].wlan[0].radio receptionState:vector ETV
attr interpolationmode sample-hold
attr source receptionStateChanged
attr title "Radio reception state, vector"
vector 59 FanetSecureSybil.host[4].wlan[0].radio transmissionState:vector ETV
attr interpolationmode sample-hold
attr source transmissionStateChanged
attr title "Radio transmission state, vector"
vector 60 FanetSecureSybil.host[5].wlan[0].radio receptionState:vector ETV
attr interpolationmode sample-hold
attr source receptionStateChanged
attr title "Radio reception state, vector"
vector 61 FanetSecureSybil.host[5].wlan[0].radio transmissionState:vector ETV
attr interpolationmode sample-hold
attr source transmissionStateChanged
attr title "Radio transmission state, vector"
vector 62 FanetSecureSybil.host[6].wlan[0].radio receptionState:vector ETV
attr interpolationmode sample-hold
attr source receptionStateChanged
attr title "Radio reception state, vector"
vector 63 FanetSecureSybil.host[6].wlan[0].radio transmissionState:vector ETV
attr interpolationmode sample-hold
attr source transmissionStateChanged
attr title "Radio transmission state, vector"
vector 64 FanetSecureSybil.host[7].wlan[0].radio receptionState:vector ETV
attr interpolationmode sample-hold
attr source receptionStateChanged
attr title "Radio reception state, vector"
vector 65 FanetSecureSybil.host[7].wlan[0].radio transmissionState:vector ETV
attr interpolationmode sample-hold
attr source transmissionStateChanged
attr title "Radio transmission state, vector"
vector 66 FanetSecureSybil.host[8].wlan[0].radio receptionState:vector ETV
attr interpolationmode sample-hold
attr source receptionStateChanged
attr title "Radio reception state, vector"
vector 67 FanetSecureSybil.host[8].wlan[0].radio transmissionState:vector ETV
attr interpolationmode sample-hold
attr source transmissionStateChanged
attr title "Radio transmission state, vector"
vector 68 FanetSecureSybil.host[9].wlan[0].radio receptionState:vector ETV
attr interpolationmode sample-hold
attr source receptionStateChanged
attr title "Radio reception state, vector"
vector 69 FanetSecureSybil.host[9].wlan[0].radio transmissionState:vector ETV
attr interpolationmode sample-hold
attr source transmissionStateChanged
attr title "Radio transmission state, vector"
vector 70 FanetSecureSybil.host[10].wlan[0].radio receptionState:vector ETV
attr interpolationmode sample-hold
attr source receptionStateChanged
attr title "Radio reception state, vector"
vector 71 FanetSecureSybil.host[10].wlan[0].radio transmissionState:vector ETV
attr interpolationmode sample-hold
attr source transmissionStateChanged
attr title "Radio transmission state, vector"
vector 72 FanetSecureSybil.host[11].wlan[0].radio receptionState:vector ETV
attr interpolationmode sample-hold
attr source receptionStateChanged
attr title "Radio reception state, vector"
vector 73 FanetSecureSybil.host[11].wlan[0].radio transmissionState:vector ETV
attr interpolationmode sample-hold
attr source transmissionStateChanged
attr title "Radio transmission state, vector"
vector 74 FanetSecureSybil.host[12].wlan[0].radio receptionState:vector ETV
attr interpolationmode sample-hold
attr source receptionStateChanged
attr title "Radio reception state, vector"
vector 75 FanetSecureSybil.host[12].wlan[0].radio transmissionState:vector ETV
attr interpolationmode sample-hold
attr source transmissionStateChanged
attr title "Radio transmission state, vector"
vector 76 FanetSecureSybil.host[13].wlan[0].radio receptionState:vector ETV
attr interpolationmode sample-hold
attr source receptionStateChanged
attr title "Radio reception state, vector"
vector 77 FanetSecureSybil.host[13].wlan[0].radio transmissionState:vector ETV
attr interpolationmode sample-hold
attr source transmissionStateChanged
attr title "Radio transmission state, vector"
vector 78 FanetSecureSybil.host[14].wlan[0].radio receptionState:vector ETV
attr interpolationmode sample-hold
attr source receptionStateChanged
attr title "Radio reception state, vector"
vector 79 FanetSecureSybil.host[14].wlan[0].radio transmissionState:vector ETV
attr interpolationmode sample-hold
attr source transmissionStateChanged
attr title "Radio transmission state, vector"
vector 80 FanetSecureSybil.host[15].wlan[0].radio receptionState:vector ETV
attr interpolationmode sample-hold
attr source receptionStateChanged
attr title "Radio reception state, vector"
vector 81 FanetSecureSybil.host[15].wlan[0].radio transmissionState:vector ETV
attr interpolationmode sample-hold
attr source transmissionStateChanged
attr title "Radio transmission state, vector"
vector 82 FanetSecureSybil.host[16].wlan[0].radio receptionState:vector ETV
attr interpolationmode sample-hold
attr source receptionStateChanged
attr title "Radio reception state, vector"
vector 83 FanetSecureSybil.host[16].wlan[0].radio transmissionState:vector ETV
attr interpolationmode sample-hold
attr source transmissionStateChanged
attr title "Radio transmission state, vector"
vector 84 FanetSecureSybil.host[17].wlan[0].radio receptionState:vector ETV
attr interpolationmode sample-hold
attr source receptionStateChanged
attr title "Radio reception state, vector"
vector 85 FanetSecureSybil.host[17].wlan[0].radio transmissionState:vector ETV
attr interpolationmode sample-hold
attr source transmissionStateChanged
attr title "Radio transmission state, vector"
vector 86 FanetSecureSybil.host[18].wlan[0].radio receptionState:vector ETV
attr interpolationmode sample-hold
attr source receptionStateChanged
attr title "Radio reception state, vector"
vector 87 FanetSecureSybil.host[18].wlan[0].radio transmissionState:vector ETV
attr interpolationmode sample-hold
attr source transmissionStateChanged
attr title "Radio transmission state, vector"
vector 88 FanetSecureSybil.host[19].wlan[0].radio receptionState:vector ETV
attr interpolationmode sample-hold
attr source receptionStateChanged
attr title "Radio reception state, vector"
vector 89 FanetSecureSybil.host[19].wlan[0].radio transmissionState:vector ETV
attr interpolationmode sample-hold
attr source transmissionStateChanged
attr title "Radio transmission state, vector"
vector 90 FanetSecureSybil.host[20].wlan[0].radio receptionState:vector ETV
attr interpolationmode sample-hold
attr source receptionStateChanged
attr title "Radio reception state, vector"
vector 91 FanetSecureSybil.host[20].wlan[0].radio transmissionState:vector ETV
attr interpolationmode sample-hold
attr source transmissionStateChanged
attr title "Radio transmission state, vector"
vector 92 FanetSecureSybil.host[21].wlan[0].radio receptionState:vector ETV
attr interpolationmode sample-hold
attr source receptionStateChanged
attr title "Radio reception state, vector"
vector 93 FanetSecureSybil.host[21].wlan[0].radio transmissionState:vector ETV
attr interpolationmode sample-hold
attr source transmissionStateChanged
attr title "Radio transmission state, vector"
vector 94 FanetSecureSybil.host[22].wlan[0].radio receptionState:vector ETV
attr interpolationmode sample-hold
attr source receptionStateChanged
attr title "Radio reception state, vector"
vector 95 FanetSecureSybil.host[22].wlan[0].radio transmissionState:vector ETV
attr interpolationmode sample-hold
attr source transmissionStateChanged
attr title "Radio transmission state, vector"
vector 96 FanetSecureSybil.host[23].wlan[0].radio receptionState:vector ETV
attr interpolationmode sample-hold
attr source receptionStateChanged
attr title "Radio reception state, vector"
vector 97 FanetSecureSybil.host[23].wlan[0].radio transmissionState:vector ETV
attr interpolationmode sample-hold
attr source transmissionStateChanged
attr title "Radio transmission state, vector"
vector 98 FanetSecureSybil.host[24].wlan[0].radio receptionState:vector ETV
attr interpolationmode sample-hold
attr source receptionStateChanged
attr title "Radio reception state, vector"
vector 99 FanetSecureSybil.host[24].wlan[0].radio transmissionState:vector ETV
attr interpolationmode sample-hold
attr source transmissionStateChanged
attr title "Radio transmission state, vector"
vector 100 FanetSecureSybil.host[25].wlan[0].radio receptionState:vector ETV
attr interpolationmode sample-hold
attr source receptionStateChanged
attr title "Radio reception state, vector"
vector 101 FanetSecureSybil.host[25].wlan[0].radio transmissionState:vector ETV
attr interpolationmode sample-hold
attr source transmissionStateChanged
attr title "Radio transmission state, vector"
vector 102 FanetSecureSybil.host[26].wlan[0].radio receptionState:vector ETV
attr interpolationmode sample-hold
attr source receptionStateChanged
attr title "Radio reception state, vector"
vector 103 FanetSecureSybil.host[26].wlan[0].radio transmissionState:vector ETV
attr interpolationmode sample-hold
attr source transmissionStateChanged
attr title "Radio transmission state, vector"
vector 104 FanetSecureSybil.host[27].wlan[0].radio receptionState:vector ETV
attr interpolationmode sample-hold
attr source receptionStateChanged
attr title "Radio reception state, vector"
vector 105 FanetSecureSybil.host[27].wlan[0].radio transmissionState:vector ETV
attr interpolationmode sample-hold
attr source transmissionStateChanged
attr title "Radio transmission state, vector"
vector 106 FanetSecureSybil.host[28].wlan[0].radio receptionState:vector ETV
attr interpolationmode sample-hold
attr source receptionStateChanged
attr title "Radio reception state, vector"
vector 107 FanetSecureSybil.host[28].wlan[0].radio transmissionState:vector ETV
attr interpolationmode sample-hold
attr source transmissionStateChanged
attr title "Radio transmission state, vector"
vector 108 FanetSecureSybil.host[29].wlan[0].radio receptionState:vector ETV
attr interpolationmode sample-hold
attr source receptionStateChanged
attr title "Radio reception state, vector"
vector 109 FanetSecureSybil.host[29].wlan[0].radio transmissionState:vector ETV
attr interpolationmode sample-hold
attr source transmissionStateChanged
attr title "Radio transmission state, vector"
vector 110 FanetSecureSybil.attacker[0].wlan[0].radio receptionState:vector ETV
attr interpolationmode sample-hold
attr source receptionStateChanged
attr title "Radio reception state, vector"
vector 111 FanetSecureSybil.attacker[0].wlan[0].radio transmissionState:vector ETV
attr interpolationmode sample-hold
attr source transmissionStateChanged
attr title "Radio transmission state, vector"
vector 112 FanetSecureSybil.attacker[1].wlan[0].radio receptionState:vector ETV
attr interpolationmode sample-hold
attr source receptionStateChanged
attr title "Radio reception state, vector"
vector 113 FanetSecureSybil.attacker[1].wlan[0].radio transmissionState:vector ETV
attr interpolationmode sample-hold
attr source transmissionStateChanged
attr title "Radio transmission state, vector"
vector 114 FanetSecureSybil.attacker[2].wlan[0].radio receptionState:vector ETV
attr interpolationmode sample-hold
attr source receptionStateChanged
attr title "Radio reception state, vector"
vector 115 FanetSecureSybil.attacker[2].wlan[0].radio transmissionState:vector ETV
attr interpolationmode sample-hold
attr source transmissionStateChanged
attr title "Radio transmission state, vector"
vector 116 FanetSecureSybil.attacker[3].wlan[0].radio receptionState:vector ETV
attr interpolationmode sample-hold
attr source receptionStateChanged
attr title "Radio reception state, vector"
vector 117 FanetSecureSybil.attacker[3].wlan[0].radio transmissionState:vector ETV
attr interpolationmode sample-hold
attr source transmissionStateChanged
attr title "Radio transmission state, vector"
vector 118 FanetSecureSybil.attacker[4].wlan[0].radio receptionState:vector ETV
attr interpolationmode sample-hold
attr source receptionStateChanged
attr title "Radio reception state, vector"
vector 119 FanetSecureSybil.attacker[4].wlan[0].radio transmissionState:vector ETV
attr interpolationmode sample-hold
attr source transmissionStateChanged
attr title "Radio transmission state, vector"
vector 120 FanetSecureSybil.attacker[5].wlan[0].radio receptionState:vector ETV
attr interpolationmode sample-hold
attr source receptionStateChanged
attr title "Radio reception state, vector"
vector 121 FanetSecureSybil.attacker[5].wlan[0].radio transmissionState:vector ETV
attr interpolationmode sample-hold
attr source transmissionStateChanged
attr title "Radio transmission state, vector"
vector 122 FanetSecureSybil.attacker[6].wlan[0].radio receptionState:vector ETV
attr interpolationmode sample-hold
attr source receptionStateChanged
attr title "Radio reception state, vector"
vector 123 FanetSecureSybil.attacker[6].wlan[0].radio transmissionState:vector ETV
attr interpolationmode sample-hold
attr source transmissionStateChanged
attr title "Radio transmission state, vector"
vector 124 FanetSecureSybil.attacker[7].wlan[0].radio receptionState:vector ETV
attr interpolationmode sample-hold
attr source receptionStateChanged
attr title "Radio reception state, vector"
vector 125 FanetSecureSybil.attacker[7].wlan[0].radio transmissionState:vector ETV
attr interpolationmode sample-hold
attr source transmissionStateChanged
attr title "Radio transmission state, vector"
vector 126 FanetSecureSybil.attacker[8].wlan[0].radio receptionState:vector ETV
attr interpolationmode sample-hold
attr source receptionStateChanged
attr title "Radio reception state, vector"
vector 127 FanetSecureSybil.attacker[8].wlan[0].radio transmissionState:vector ETV
attr interpolationmode sample-hold
attr source transmissionStateChanged
attr title "Radio transmission state, vector"
vector 128 FanetSecureSybil.attacker[9].wlan[0].radio receptionState:vector ETV
attr interpolationmode sample-hold
attr source receptionStateChanged
attr title "Radio reception state, vector"
vector 129 FanetSecureSybil.attacker[9].wlan[0].radio transmissionState:vector ETV
attr interpolationmode sample-hold
attr source transmissionStateChanged
attr title "Radio transmission state, vector"
vector 130 FanetSecureSybil.attacker[10].wlan[0].radio receptionState:vector ETV
attr interpolationmode sample-hold
attr source receptionStateChanged
attr title "Radio reception state, vector"
vector 131 FanetSecureSybil.attacker[10].wlan[0].radio transmissionState:vector ETV
attr interpolationmode sample-hold
attr source transmissionStateChanged
attr title "Radio transmission state, vector"
vector 132 FanetSecureSybil.attacker[11].wlan[0].radio receptionState:vector ETV
attr interpolationmode sample-hold
attr source receptionStateChanged
attr title "Radio reception state, vector"
vector 133 FanetSecureSybil.attacker[11].wlan[0].radio transmissionState:vector ETV
attr interpolationmode sample-hold
attr source transmissionStateChanged
attr title "Radio transmission state, vector"
vector 134 FanetSecureSybil.attacker[12].wlan[0].radio receptionState:vector ETV
attr interpolationmode sample-hold
attr source receptionStateChanged
attr title "Radio reception state, vector"
vector 135 FanetSecureSybil.attacker[12].wlan[0].radio transmissionState:vector ETV
attr interpolationmode sample-hold
attr source transmissionStateChanged
attr title "Radio transmission state, vector"
vector 136 FanetSecureSybil.attacker[13].wlan[0].radio receptionState:vector ETV
attr interpolationmode sample-hold
attr source receptionStateChanged
attr title "Radio reception state, vector"
vector 137 FanetSecureSybil.attacker[13].wlan[0].radio transmissionState:vector ETV
attr interpolationmode sample-hold
attr source transmissionStateChanged
attr title "Radio transmission state, vector"
vector 138 FanetSecureSybil.attacker[14].wlan[0].radio receptionState:vector ETV
attr interpolationmode sample-hold
attr source receptionStateChanged
attr title "Radio reception state, vector"
vector 139 FanetSecureSybil.attacker[14].wlan[0].radio transmissionState:vector ETV
attr interpolationmode sample-hold
attr source transmissionStateChanged
attr title "Radio transmission state, vector"
vector 140 FanetSecureSybil.attacker[15].wlan[0].radio receptionState:vector ETV
attr interpolationmode sample-hold
attr source receptionStateChanged
attr title "Radio reception state, vector"
vector 141 FanetSecureSybil.attacker[15].wlan[0].radio transmissionState:vector ETV
attr interpolationmode sample-hold
attr source transmissionStateChanged
attr title "Radio transmission state, vector"
vector 142 FanetSecureSybil.attacker[16].wlan[0].radio receptionState:vector ETV
attr interpolationmode sample-hold
attr source receptionStateChanged
attr title "Radio reception state, vector"
vector 143 FanetSecureSybil.attacker[16].wlan[0].radio transmissionState:vector ETV
attr interpolationmode sample-hold
attr source transmissionStateChanged
attr title "Radio transmission state, vector"
vector 144 FanetSecureSybil.attacker[17].wlan[0].radio receptionState:vector ETV
attr interpolationmode sample-hold
attr source receptionStateChanged
attr title "Radio reception state, vector"
vector 145 FanetSecureSybil.attacker[17].wlan[0].radio transmissionState:vector ETV
attr interpolationmode sample-hold
attr source transmissionStateChanged
attr title "Radio transmission state, vector"
vector 146 FanetSecureSybil.attacker[18].wlan[0].radio receptionState:vector ETV
attr interpolationmode sample-hold
attr source receptionStateChanged
attr title "Radio reception state, vector"
vector 147 FanetSecureSybil.attacker[18].wlan[0].radio transmissionState:vector ETV
attr interpolationmode sample-hold
attr source transmissionStateChanged
attr title "Radio transmission state, vector"
vector 148 FanetSecureSybil.attacker[19].wlan[0].radio receptionState:vector ETV
attr interpolationmode sample-hold
attr source receptionStateChanged
attr title "Radio reception state, vector"
vector 149 FanetSecureSybil.attacker[19].wlan[0].radio transmissionState:vector ETV
attr interpolationmode sample-hold
attr source transmissionStateChanged
attr title "Radio transmission state, vector"
vector 150 FanetSecureSybil.attacker[2].wlan[0].mac rcvdPkFromHl:vector(packetBytes) ETV
attr interpolationmode none
attr source packetReceivedFromUpper
attr title "packets received from higher layer, vector(packetBytes)"
vector 151 FanetSecureSybil.attacker[2].wlan[0].mac.queue packetPushed:vector(packetBytes) ETV
attr interpolationmode none
attr title "packet pushed, vector(packetBytes)"
vector 152 FanetSecureSybil.attacker[2].wlan[0].mac.queue queueLength:vector ETV
attr interpolationmode sample-hold
attr source "count(packetPushed) - count(packetPopped) - count(packetRemoved) - count(packetDropped)"
attr title "queue length, vector"
vector 153 FanetSecureSybil.attacker[2].wlan[0].mac.queue packetPopped:vector(packetBytes) ETV
attr interpolationmode none
attr title "packet popped, vector(packetBytes)"
vector 154 FanetSecureSybil.attacker[2].wlan[0].mac.queue queueingTime:vector ETV
attr interpolationmode none
attr source queueingTime(packetPopped)
attr title "queueing times, vector"
attr unit s
vector 155 FanetSecureSybil.attacker[2].wlan[0].mac sentDownPk:vector(packetBytes) ETV
attr interpolationmode none
attr source packetSentToLower
attr title "packets sent to lower layer, vector(packetBytes)"
vector 156 FanetSecureSybil.host[15].wlan[0].mac rcvdPkFromLl:vector(packetBytes) ETV
attr interpolationmode none
attr source packetReceivedFromLower
attr title "packets received from lower layer, vector(packetBytes)"
vector 157 FanetSecureSybil.host[15].wlan[0].mac passedUpPk:vector(packetBytes) ETV
attr interpolationmode none
attr source packetSentToUpper
attr title "packets passed to higher layer, vector(packetBytes)"
vector 158 FanetSecureSybil.host[4].wlan[0].mac rcvdPkFromLl:vector(packetBytes) ETV
attr interpolationmode none
attr source packetReceivedFromLower
attr title "packets received from lower layer, vector(packetBytes)"
vector 159 FanetSecureSybil.host[4].wlan[0].mac passedUpPk:vector(packetBytes) ETV
attr interpolationmode none
attr source packetSentToUpper
attr title "packets passed to higher layer, vector(packetBytes)"
vector 160 FanetSecureSybil.host[16].wlan[0].mac rcvdPkFromLl:vector(packetBytes) ETV
attr interpolationmode none
attr source packetReceivedFromLower
attr title "packets received from lower layer, vector(packetBytes)"
vector 161 FanetSecureSybil.host[16].wlan[0].mac passedUpPk:vector(packetBytes) ETV
attr interpolationmode none
attr source packetSentToUpper
attr title "packets passed to higher layer, vector(packetBytes)"
vector 162 FanetSecureSybil.attacker[3].wlan[0].mac rcvdPkFromLl:vector(packetBytes) ETV
attr interpolationmode none
attr source packetReceivedFromLower
attr title "packets received from lower layer, vector(packetBytes)"
vector 163 FanetSecureSybil.attacker[3].wlan[0].mac passedUpPk:vector(packetBytes) ETV
attr interpolationmode none
attr source packetSentToUpper
attr title "packets passed to higher layer, vector(packetBytes)"
vector 164 FanetSecureSybil.attacker[5].wlan[0].mac rcvdPkFromLl:vector(packetBytes) ETV
attr interpolationmode none
attr source packetReceivedFromLower
attr title "packets received from lower layer, vector(packetBytes)"
vector 165 FanetSecureSybil.attacker[5].wlan[0].mac passedUpPk:vector(packetBytes) ETV
attr interpolationmode none
attr source packetSentToUpper
attr title "packets passed to higher layer, vector(packetBytes)"
vector 166 FanetSecureSybil.host[7].wlan[0].mac rcvdPkFromLl:vector(packetBytes) ETV
attr interpolationmode none
attr source packetReceivedFromLower
attr title "packets received from lower layer, vector(packetBytes)"
vector 167 FanetSecureSybil.host[7].wlan[0].mac passedUpPk:vector(packetBytes) ETV
attr interpolationmode none
attr source packetSentToUpper
attr title "packets passed to higher layer, vector(packetBytes)"
vector 168 FanetSecureSybil.host[15].wlan[0].mac rcvdPkFromHl:vector(packetBytes) ETV
attr interpolationmode none
attr source packetReceivedFromUpper
attr title "packets received from higher layer, vector(packetBytes)"
vector 169 FanetSecureSybil.host[15].wlan[0].mac.queue packetPushed:vector(packetBytes) ETV
attr interpolationmode none
attr title "packet pushed, vector(packetBytes)"
vector 170 FanetSecureSybil.host[15].wlan[0].mac.queue queueLength:vector ETV
attr interpolationmode sample-hold
attr source "count(packetPushed) - count(packetPopped) - count(packetRemoved) - count(packetDropped)"
attr title "queue length, vector"
vector 171 FanetSecureSybil.host[15].wlan[0].mac.queue packetPopped:vector(packetBytes) ETV
attr interpolationmode none
attr title "packet popped, vector(packetBytes)"
vector 172 FanetSecureSybil.host[15].wlan[0].mac.queue queueingTime:vector ETV
attr interpolationmode none
attr source queueingTime(packetPopped)
attr title "queueing times, vector"
attr unit s
vector 173 FanetSecureSybil.host[15].wlan[0].mac sentDownPk:vector(packetBytes) ETV
attr interpolationmode none
attr source packetSentToLower
attr title "packets sent to lower layer, vector(packetBytes)"
vector 174 FanetSecureSybil.attacker[2].wlan[0].mac rcvdPkFromLl:vector(packetBytes) ETV
attr interpolationmode none
attr source packetReceivedFromLower
attr title "packets received from lower layer, vector(packetBytes)"
vector 175 FanetSecureSybil.attacker[2].wlan[0].mac passedUpPk:vector(packetBytes) ETV
attr interpolationmode none
attr source packetSentToUpper
attr title "packets passed to higher layer, vector(packetBytes)"
vector 176 FanetSecureSybil.host[28].wlan[0].mac rcvdPkFromHl:vector(packetBytes) ETV
attr interpolationmode none
attr source packetReceivedFromUpper
attr title "packets received from higher layer, vector(packetBytes)"
vector 177 FanetSecureSybil.host[28].wlan[0].mac.queue packetPushed:vector(packetBytes) ETV
attr interpolationmode none
attr title "packet pushed, vector(packetBytes)"
vector 178 FanetSecureSybil.host[28].wlan[0].mac.queue queueLength:vector ETV
attr interpolationmode sample-hold
attr source "count(packetPushed) - count(packetPopped) - count(packetRemoved) - count(packetDropped)"
attr title "queue length, vector"
vector 179 FanetSecureSybil.host[28].wlan[0].mac.queue packetPopped:vector(packetBytes) ETV
attr interpolationmode none
attr title "packet popped, vector(packetBytes)"
vector 180 FanetSecureSybil.host[28].wlan[0].mac.queue queueingTime:vector ETV
attr interpolationmode none
attr source queueingTime(packetPopped)
attr title "queueing times, vector"
attr unit s
vector 181 FanetSecureSybil.host[28].wlan[0].mac sentDownPk:vector(packetBytes) ETV
attr interpolationmode none
attr source packetSentToLower
attr title "packets sent to lower layer, vector(packetBytes)"
vector 182 FanetSecureSybil.host[2].wlan[0].mac rcvdPkFromLl:vector(packetBytes) ETV
attr interpolationmode none
attr source packetReceivedFromLower
attr title "packets received from lower layer, vector(packetBytes)"
vector 183 FanetSecureSybil.host[2].wlan[0].mac passedUpPk:vector(packetBytes) ETV
attr interpolationmode none
attr source packetSentToUpper
attr title "packets passed to higher layer, vector(packetBytes)"
vector 184 FanetSecureSybil.attacker[1].wlan[0].mac rcvdPkFromLl:vector(packetBytes) ETV
attr interpolationmode none
attr source packetReceivedFromLower
attr title "packets received from lower layer, vector(packetBytes)"
vector 185 FanetSecureSybil.attacker[1].wlan[0].mac passedUpPk:vector(packetBytes) ETV
attr interpolationmode none
attr source packetSentToUpper
attr title "packets passed to higher layer, vector(packetBytes)"
vector 186 FanetSecureSybil.attacker[4].wlan[0].mac rcvdPkFromLl:vector(packetBytes) ETV
attr interpolationmode none
attr source packetReceivedFromLower
attr title "packets received from lower layer, vector(packetBytes)"
vector 187 FanetSecureSybil.attacker[4].wlan[0].mac passedUpPk:vector(packetBytes) ETV
attr interpolationmode none
attr source packetSentToUpper
attr title "packets passed to higher layer, vector(packetBytes)"
vector 188 FanetSecureSybil.host[3].wlan[0].mac rcvdPkFromLl:vector(packetBytes) ETV
attr interpolationmode none
attr source packetReceivedFromLower
attr title "packets received from lower layer, vector(packetBytes)"
vector 189 FanetSecureSybil.host[3].wlan[0].mac passedUpPk:vector(packetBytes) ETV
attr interpolationmode none
attr source packetSentToUpper
attr title "packets passed to higher layer, vector(packetBytes)"
vector 190 FanetSecureSybil.attacker[0].wlan[0].mac rcvdPkFromHl:vector(packetBytes) ETV
attr interpolationmode none
attr source packetReceivedFromUpper
attr title "packets received from higher layer, vector(packetBytes)"
vector 191 FanetSecureSybil.attacker[0].wlan[0].mac.queue packetPushed:vector(packetBytes) ETV
attr interpolationmode none
attr title "packet pushed, vector(packetBytes)"
vector 192 FanetSecureSybil.attacker[0].wlan[0].mac.queue queueLength:vector ETV
attr interpolationmode sample-hold
attr source "count(packetPushed) - count(packetPopped) - count(packetRemoved) - count(packetDropped)"
attr title "queue length, vector"
vector 193 FanetSecureSybil.attacker[0].wlan[0].mac.queue packetPopped:vector(packetBytes) ETV
attr interpolationmode none
attr title "packet popped, vector(packetBytes)"
vector 194 FanetSecureSybil.attacker[0].wlan[0].mac.queue queueingTime:vector ETV
attr interpolationmode none
attr source queueingTime(packetPopped)
attr title "queueing times, vector"
attr unit s
vector 195 FanetSecureSybil.attacker[0].wlan[0].mac sentDownPk:vector(packetBytes) ETV
attr interpolationmode none
attr source packetSentToLower
attr title "packets sent to lower layer, vector(packetBytes)"
vector 196 FanetSecureSybil.attacker[18].wlan[0].mac rcvdPkFromLl:vector(packetBytes) ETV
attr interpolationmode none
attr source packetReceivedFromLower
attr title "packets received from lower layer, vector(packetBytes)"
vector 197 FanetSecureSybil.attacker[18].wlan[0].mac passedUpPk:vector(packetBytes) ETV
attr interpolationmode none
attr source packetSentToUpper
attr title "packets passed to higher layer, vector(packetBytes)"
vector 198 FanetSecureSybil.host[27].wlan[0].mac rcvdPkFromLl:vector(packetBytes) ETV
attr interpolationmode none
attr source packetReceivedFromLower
attr title "packets received from lower layer, vector(packetBytes)"
vector 199 FanetSecureSybil.host[27].wlan[0].mac passedUpPk:vector(packetBytes) ETV
attr interpolationmode none
attr source packetSentToUpper
attr title "packets passed to higher layer, vector(packetBytes)"
vector 200 FanetSecureSybil.host[12].wlan[0].mac rcvdPkFromLl:vector(packetBytes) ETV
attr interpolationmode none
attr source packetReceivedFromLower
attr title "packets received from lower layer, vector(packetBytes)"
vector 201 FanetSecureSybil.host[12].wlan[0].mac passedUpPk:vector(packetBytes) ETV
attr interpolationmode none
attr source packetSentToUpper
attr title "packets passed to higher layer, vector(packetBytes)"
vector 202 FanetSecureSybil.attacker[10].wlan[0].mac rcvdPkFromLl:vector(packetBytes) ETV
attr interpolationmode none
attr source packetReceivedFromLower
attr title "packets received from lower layer, vector(packetBytes)"
vector 203 FanetSecureSybil.attacker[10].wlan[0].mac passedUpPk:vector(packetBytes) ETV
attr interpolationmode none
attr source packetSentToUpper
attr title "packets passed to higher layer, vector(packetBytes)"
vector 204 FanetSecureSybil.attacker[13].wlan[0].mac rcvdPkFromLl:vector(packetBytes) ETV
attr interpolationmode none
attr source packetReceivedFromLower
attr title "packets received from lower layer, vector(packetBytes)"
vector 205 FanetSecureSybil.attacker[13].wlan[0].mac passedUpPk:vector(packetBytes) ETV
attr interpolationmode none
attr source packetSentToUpper
attr title "packets passed to higher layer, vector(packetBytes)"
vector 206 FanetSecureSybil.attacker[18].wlan[0].mac rcvdPkFromHl:vector(packetBytes) ETV
attr interpolationmode none
attr source packetReceivedFromUpper
attr title "packets received from higher layer, vector(packetBytes)"
vector 207 FanetSecureSybil.attacker[18].wlan[0].mac.queue packetPushed:vector(packetBytes) ETV
attr interpolationmode none
attr title "packet pushed, vector(packetBytes)"
vector 208 FanetSecureSybil.attacker[18].wlan[0].mac.queue queueLength:vector ETV
attr interpolationmode sample-hold
attr source "count(packetPushed) - count(packetPopped) - count(packetRemoved) - count(packetDropped)"
attr title "queue length, vector"
vector 209 FanetSecureSybil.attacker[18].wlan[0].mac.queue packetPopped:vector(packetBytes) ETV
attr interpolationmode none
attr title "packet popped, vector(packetBytes)"
vector 210 FanetSecureSybil.attacker[18].wlan[0].mac.queue queueingTime:vector ETV
attr interpolationmode none
attr source queueingTime(packetPopped)
attr title "queueing times, vector"
attr unit s
vector 211 FanetSecureSybil.attacker[18].wlan[0].mac sentDownPk:vector(packetBytes) ETV
attr interpolationmode none
attr source packetSentToLower
attr title "packets sent to lower layer, vector(packetBytes)"
vector 212 FanetSecureSybil.attacker[0].wlan[0].mac rcvdPkFromLl:vector(packetBytes) ETV
attr interpolationmode none
attr source packetReceivedFromLower
attr title "packets received from lower layer, vector(packetBytes)"
vector 213 FanetSecureSybil.attacker[0].wlan[0].mac passedUpPk:vector(packetBytes) ETV
attr interpolationmode none
attr source packetSentToUpper
attr title "packets passed to higher layer, vector(packetBytes)"
vector 214 FanetSecureSybil.attacker[6].wlan[0].mac rcvdPkFromLl:vector(packetBytes) ETV
attr interpolationmode none
attr source packetReceivedFromLower
attr title "packets received from lower layer, vector(packetBytes)"
vector 215 FanetSecureSybil.attacker[6].wlan[0].mac passedUpPk:vector(packetBytes) ETV
attr interpolationmode none
attr source packetSentToUpper
attr title "packets passed to higher layer, vector(packetBytes)"
vector 216 FanetSecureSybil.attacker[7].wlan[0].mac rcvdPkFromHl:vector(packetBytes) ETV
attr interpolationmode none
attr source packetReceivedFromUpper
attr title "packets received from higher layer, vector(packetBytes)"
vector 217 FanetSecureSybil.attacker[7].wlan[0].mac.queue packetPushed:vector(packetBytes) ETV
attr interpolationmode none
attr title "packet pushed, vector(packetBytes)"
vector 218 FanetSecureSybil.attacker[7].wlan[0].mac.queue queueLength:vector ETV
attr interpolationmode sample-hold
attr source "count(packetPushed) - count(packetPopped) - count(packetRemoved) - count(packetDropped)"
attr title "queue length, vector"
vector 219 FanetSecureSybil.attacker[7].wlan[0].mac.queue packetPopped:vector(packetBytes) ETV
attr interpolationmode none
attr title "packet popped, vector(packetBytes)"
vector 220 FanetSecureSybil.attacker[7].wlan[0].mac.queue queueingTime:vector ETV
attr interpolationmode none
attr source queueingTime(packetPopped)
attr title "queueing times, vector"
attr unit s
vector 221 FanetSecureSybil.attacker[7].wlan[0].mac sentDownPk:vector(packetBytes) ETV
attr interpolationmode none
attr source packetSentToLower
attr title "packets sent to lower layer, vector(packetBytes)"
vector 222 FanetSecureSybil.host[6].wlan[0].mac rcvdPkFromLl:vector(packetBytes) ETV
attr interpolationmode none
attr source packetReceivedFromLower
attr title "packets received from lower layer, vector(packetBytes)"
vector 223 FanetSecureSybil.host[6].wlan[0].mac passedUpPk:vector(packetBytes) ETV
attr interpolationmode none
attr source packetSentToUpper
attr title "packets passed to higher layer, vector(packetBytes)"
vector 224 FanetSecureSybil.host[17].wlan[0].mac rcvdPkFromHl:vector(packetBytes) ETV
attr interpolationmode none
attr source packetReceivedFromUpper
attr title "packets received from higher layer, vector(packetBytes)"
vector 225 FanetSecureSybil.host[17].wlan[0].mac.queue packetPushed:vector(packetBytes) ETV
attr interpolationmode none
attr title "packet pushed, vector(packetBytes)"
vector 226 FanetSecureSybil.host[17].wlan[0].mac.queue queueLength:vector ETV
attr interpolationmode sample-hold
attr source "count(packetPushed) - count(packetPopped) - count(packetRemoved) - count(packetDropped)"
attr title "queue length, vector"
vector 227 FanetSecureSybil.host[17].wlan[0].mac.queue packetPopped:vector(packetBytes) ETV
attr interpolationmode none
attr title "packet popped, vector(packetBytes)"
vector 228 FanetSecureSybil.host[17].wlan[0].mac.queue queueingTime:vector ETV
attr interpolationmode none
attr source queueingTime(packetPopped)
attr title "queueing times, vector"
attr unit s
vector 229 FanetSecureSybil.host[17].wlan[0].mac sentDownPk:vector(packetBytes) ETV
attr interpolationmode none
attr source packetSentToLower
attr title "packets sent to lower layer, vector(packetBytes)"
vector 230 FanetSecureSybil.attacker[17].wlan[0].mac rcvdPkFromLl:vector(packetBytes) ETV
attr interpolationmode none
attr source packetReceivedFromLower
attr title "packets received from lower layer, vector(packetBytes)"
vector 231 FanetSecureSybil.attacker[17].wlan[0].mac passedUpPk:vector(packetBytes) ETV
attr interpolationmode none
attr source packetSentToUpper
attr title "packets passed to higher layer, vector(packetBytes)"
vector 232 FanetSecureSybil.attacker[19].wlan[0].mac rcvdPkFromLl:vector(packetBytes) ETV
attr interpolationmode none
attr source packetReceivedFromLower
attr title "packets received from lower layer, vector(packetBytes)"
vector 233 FanetSecureSybil.attacker[19].wlan[0].mac passedUpPk:vector(packetBytes) ETV
attr interpolationmode none
attr source packetSentToUpper
attr title "packets passed to higher layer, vector(packetBytes)"
vector 234 FanetSecureSybil.host[5].wlan[0].mac rcvdPkFromLl:vector(packetBytes) ETV
attr interpolationmode none
attr source packetReceivedFromLower
attr title "packets received from lower layer, vector(packetBytes)"
vector 235 FanetSecureSybil.host[5].wlan[0].mac passedUpPk:vector(packetBytes) ETV
attr interpolationmode none
attr source packetSentToUpper
attr title "packets passed to higher layer, vector(packetBytes)"
vector 236 FanetSecureSybil.attacker[11].wlan[0].mac rcvdPkFromLl:vector(packetBytes) ETV
attr interpolationmode none
attr source packetReceivedFromLower
attr title "packets received from lower layer, vector(packetBytes)"
vector 237 FanetSecureSybil.attacker[11].wlan[0].mac passedUpPk:vector(packetBytes) ETV
attr interpolationmode none
attr source packetSentToUpper
attr title "packets passed to higher layer, vector(packetBytes)"
vector 238 FanetSecureSybil.attacker[9].wlan[0].mac rcvdPkFromLl:vector(packetBytes) ETV
attr interpolationmode none
attr source packetReceivedFromLower
attr title "packets received from lower layer, vector(packetBytes)"
vector 239 FanetSecureSybil.attacker[9].wlan[0].mac passedUpPk:vector(packetBytes) ETV
attr interpolationmode none
attr source packetSentToUpper
attr title "packets passed to higher layer, vector(packetBytes)"
vector 240 FanetSecureSybil.attacker[14].wlan[0].mac rcvdPkFromLl:vector(packetBytes) ETV
attr interpolationmode none
attr source packetReceivedFromLower
attr title "packets received from lower layer, vector(packetBytes)"
vector 241 FanetSecureSybil.attacker[14].wlan[0].mac passedUpPk:vector(packetBytes) ETV
attr interpolationmode none
attr source packetSentToUpper
attr title "packets passed to higher layer, vector(packetBytes)"
vector 242 FanetSecureSybil.host[13].wlan[0].mac rcvdPkFromHl:vector(packetBytes) ETV
attr interpolationmode none
attr source packetReceivedFromUpper
attr title "packets received from higher layer, vector(packetBytes)"
vector 243 FanetSecureSybil.host[13].wlan[0].mac.queue packetPushed:vector(packetBytes) ETV
attr interpolationmode none
attr title "packet pushed, vector(packetBytes)"
vector 244 FanetSecureSybil.host[13].wlan[0].mac.queue queueLength:vector ETV
attr interpolationmode sample-hold
attr source "count(packetPushed) - count(packetPopped) - count(packetRemoved) - count(packetDropped)"
attr title "queue length, vector"
vector 245 FanetSecureSybil.host[13].wlan[0].mac.queue packetPopped:vector(packetBytes) ETV
attr interpolationmode none
attr title "packet popped, vector(packetBytes)"
vector 246 FanetSecureSybil.host[13].wlan[0].mac.queue queueingTime:vector ETV
attr interpolationmode none
attr source queueingTime(packetPopped)
attr title "queueing times, vector"
attr unit s
vector 247 FanetSecureSybil.host[13].wlan[0].mac sentDownPk:vector(packetBytes) ETV
attr interpolationmode none
attr source packetSentToLower
attr title "packets sent to lower layer, vector(packetBytes)"
vector 248 FanetSecureSybil.host[22].wlan[0].mac rcvdPkFromLl:vector(packetBytes) ETV
attr interpolationmode none
attr source packetReceivedFromLower
attr title "packets received from lower layer, vector(packetBytes)"
vector 249 FanetSecureSybil.host[22].wlan[0].mac passedUpPk:vector(packetBytes) ETV
attr interpolationmode none
attr source packetSentToUpper
attr title "packets passed to higher layer, vector(packetBytes)"
vector 250 FanetSecureSybil.host[24].wlan[0].mac rcvdPkFromLl:vector(packetBytes) ETV
attr interpolationmode none
attr source packetReceivedFromLower
attr title "packets received from lower layer, vector(packetBytes)"
vector 251 FanetSecureSybil.host[24].wlan[0].mac passedUpPk:vector(packetBytes) ETV
attr interpolationmode none
attr source packetSentToUpper
attr title "packets passed to higher layer, vector(packetBytes)"
vector 252 FanetSecureSybil.host[29].wlan[0].mac rcvdPkFromHl:vector(packetBytes) ETV
attr interpolationmode none
attr source packetReceivedFromUpper
attr title "packets received from higher layer, vector(packetBytes)"
vector 253 FanetSecureSybil.host[29].wlan[0].mac.queue packetPushed:vector(packetBytes) ETV
attr interpolationmode none
attr title "packet pushed, vector(packetBytes)"
vector 254 FanetSecureSybil.host[29].wlan[0].mac.queue queueLength:vector ETV
attr interpolationmode sample-hold
attr source "count(packetPushed) - count(packetPopped) - count(packetRemoved) - count(packetDropped)"
attr title "queue length, vector"
vector 255 FanetSecureSybil.host[29].wlan[0].mac.queue packetPopped:vector(packetBytes) ETV
attr interpolationmode none
attr title "packet popped, vector(packetBytes)"
vector 256 FanetSecureSybil.host[29].wlan[0].mac.queue queueingTime:vector ETV
attr interpolationmode none
attr source queueingTime(packetPopped)
attr title "queueing times, vector"
attr unit s
vector 257 FanetSecureSybil.host[29].wlan[0].mac sentDownPk:vector(packetBytes) ETV
attr interpolationmode none
attr source packetSentToLower
attr title "packets sent to lower layer, vector(packetBytes)"
vector 258 FanetSecureSybil.host[1].wlan[0].mac rcvdPkFromLl:vector(packetBytes) ETV
attr interpolationmode none
attr source packetReceivedFromLower
attr title "packets received from lower layer, vector(packetBytes)"
vector 259 FanetSecureSybil.host[1].wlan[0].mac passedUpPk:vector(packetBytes) ETV
attr interpolationmode none
attr source packetSentToUpper
attr title "packets passed to higher layer, vector(packetBytes)"
vector 260 FanetSecureSybil.attacker[3].wlan[0].mac rcvdPkFromHl:vector(packetBytes) ETV
attr interpolationmode none
attr source packetReceivedFromUpper
attr title "packets received from higher layer, vector(packetBytes)"
vector 261 FanetSecureSybil.attacker[3].wlan[0].mac.queue packetPushed:vector(packetBytes) ETV
attr interpolationmode none
attr title "packet pushed, vector(packetBytes)"
vector 262 FanetSecureSybil.attacker[3].wlan[0].mac.queue queueLength:vector ETV
attr interpolationmode sample-hold
attr source "count(packetPushed) - count(packetPopped) - count(packetRemoved) - count(packetDropped)"
attr title "queue length, vector"
vector 263 FanetSecureSybil.attacker[3].wlan[0].mac.queue packetPopped:vector(packetBytes) ETV
attr interpolationmode none
attr title "packet popped, vector(packetBytes)"
vector 264 FanetSecureSybil.attacker[3].wlan[0].mac.queue queueingTime:vector ETV
attr interpolationmode none
attr source queueingTime(packetPopped)
attr title "queueing times, vector"
attr unit s
vector 265 FanetSecureSybil.attacker[3].wlan[0].mac sentDownPk:vector(packetBytes) ETV
attr interpolationmode none
attr source packetSentToLower
attr title "packets sent to lower layer, vector(packetBytes)"
vector 266 FanetSecureSybil.host[18].wlan[0].mac rcvdPkFromLl:vector(packetBytes) ETV
attr interpolationmode none
attr source packetReceivedFromLower
attr title "packets received from lower layer, vector(packetBytes)"
vector 267 FanetSecureSybil.host[18].wlan[0].mac passedUpPk:vector(packetBytes) ETV
attr interpolationmode none
attr source packetSentToUpper
attr title "packets passed to higher layer, vector(packetBytes)"
vector 268 FanetSecureSybil.host[18].wlan[0].mac rcvdPkFromHl:vector(packetBytes) ETV
attr interpolationmode none
attr source packetReceivedFromUpper
attr title "packets received from higher layer, vector(packetBytes)"
vector 269 FanetSecureSybil.host[18].wlan[0].mac.queue packetPushed:vector(packetBytes) ETV
attr interpolationmode none
attr title "packet pushed, vector(packetBytes)"
vector 270 FanetSecureSybil.host[18].wlan[0].mac.queue queueLength:vector ETV
attr interpolationmode sample-hold
attr source "count(packetPushed) - count(packetPopped) - count(packetRemoved) - count(packetDropped)"
attr title "queue length, vector"
vector 271 FanetSecureSybil.host[18].wlan[0].mac.queue packetPopped:vector(packetBytes) ETV
attr interpolationmode none
attr title "packet popped, vector(packetBytes)"
vector 272 FanetSecureSybil.host[18].wlan[0].mac.queue queueingTime:vector ETV
attr interpolationmode none
attr source queueingTime(packetPopped)
attr title "queueing times, vector"
attr unit s
vector 273 FanetSecureSybil.host[18].wlan[0].mac sentDownPk:vector(packetBytes) ETV
attr interpolationmode none
attr source packetSentToLower
attr title "packets sent to lower layer, vector(packetBytes)"
vector 274 FanetSecureSybil.host[0].wlan[0].mac rcvdPkFromLl:vector(packetBytes) ETV
attr interpolationmode none
attr source packetReceivedFromLower
attr title "packets received from lower layer, vector(packetBytes)"
vector 275 FanetSecureSybil.host[0].wlan[0].mac passedUpPk:vector(packetBytes) ETV
attr interpolationmode none
attr source packetSentToUpper
attr title "packets passed to higher layer, vector(packetBytes)"
vector 276 FanetSecureSybil.host[9].wlan[0].mac rcvdPkFromLl:vector(packetBytes) ETV
attr interpolationmode none
attr source packetReceivedFromLower
attr title "packets received from lower layer, vector(packetBytes)"
vector 277 FanetSecureSybil.host[9].wlan[0].mac passedUpPk:vector(packetBytes) ETV
attr interpolationmode none
attr source packetSentToUpper
attr title "packets passed to higher layer, vector(packetBytes)"
vector 278 FanetSecureSybil.host[11].wlan[0].mac rcvdPkFromHl:vector(packetBytes) ETV
attr interpolationmode none
attr source packetReceivedFromUpper
attr title "packets received from higher layer, vector(packetBytes)"
vector 279 FanetSecureSybil.host[11].wlan[0].mac.queue packetPushed:vector(packetBytes) ETV
attr interpolationmode none
attr title "packet pushed, vector(packetBytes)"
vector 280 FanetSecureSybil.host[11].wlan[0].mac.queue queueLength:vector ETV
attr interpolationmode sample-hold
attr source "count(packetPushed) - count(packetPopped) - count(packetRemoved) - count(packetDropped)"
attr title "queue length, vector"
vector 281 FanetSecureSybil.host[11].wlan[0].mac.queue packetPopped:vector(packetBytes) ETV
attr interpolationmode none
attr title "packet popped, vector(packetBytes)"
vector 282 FanetSecureSybil.host[11].wlan[0].mac.queue queueingTime:vector ETV
attr interpolationmode none
attr source queueingTime(packetPopped)
attr title "queueing times, vector"
attr unit s
vector 283 FanetSecureSybil.host[11].wlan[0].mac sentDownPk:vector(packetBytes) ETV
attr interpolationmode none
attr source packetSentToLower
attr title "packets sent to lower layer, vector(packetBytes)"
vector 284 FanetSecureSybil.host[23].wlan[0].mac rcvdPkFromLl:vector(packetBytes) ETV
attr interpolationmode none
attr source packetReceivedFromLower
attr title "packets received from lower layer, vector(packetBytes)"
vector 285 FanetSecureSybil.host[23].wlan[0].mac passedUpPk:vector(packetBytes) ETV
attr interpolationmode none
attr source packetSentToUpper
attr title "packets passed to higher layer, vector(packetBytes)"
vector 286 FanetSecureSybil.host[25].wlan[0].mac rcvdPkFromHl:vector(packetBytes) ETV
attr interpolationmode none
attr source packetReceivedFromUpper
attr title "packets received from higher layer, vector(packetBytes)"
vector 287 FanetSecureSybil.host[25].wlan[0].mac.queue packetPushed:vector(packetBytes) ETV
attr interpolationmode none
attr title "packet pushed, vector(packetBytes)"
vector 288 FanetSecureSybil.host[25].wlan[0].mac.queue queueLength:vector ETV
attr interpolationmode sample-hold
attr source "count(packetPushed) - count(packetPopped) - count(packetRemoved) - count(packetDropped)"
attr title "queue length, vector"
vector 289 FanetSecureSybil.host[25].wlan[0].mac.queue packetPopped:vector(packetBytes) ETV
attr interpolationmode none
attr title "packet popped, vector(packetBytes)"
vector 290 FanetSecureSybil.host[25].wlan[0].mac.queue queueingTime:vector ETV
attr interpolationmode none
attr source queueingTime(packetPopped)
attr title "queueing times, vector"
attr unit s
vector 291 FanetSecureSybil.host[25].wlan[0].mac sentDownPk:vector(packetBytes) ETV
attr interpolationmode none
attr source packetSentToLower
attr title "packets sent to lower layer, vector(packetBytes)"
vector 292 FanetSecureSybil.attacker[12].wlan[0].mac rcvdPkFromLl:vector(packetBytes) ETV
attr interpolationmode none
attr source packetReceivedFromLower
attr title "packets received from lower layer, vector(packetBytes)"
vector 293 FanetSecureSybil.attacker[12].wlan[0].mac passedUpPk:vector(packetBytes) ETV
attr interpolationmode none
attr source packetSentToUpper
attr title "packets passed to higher layer, vector(packetBytes)"
vector 294 FanetSecureSybil.host[8].wlan[0].mac rcvdPkFromHl:vector(packetBytes) ETV
attr interpolationmode none
attr source packetReceivedFromUpper
attr title "packets received from higher layer, vector(packetBytes)"
vector 295 FanetSecureSybil.host[8].wlan[0].mac.queue packetPushed:vector(packetBytes) ETV
attr interpolationmode none
attr title "packet pushed, vector(packetBytes)"
vector 296 FanetSecureSybil.host[8].wlan[0].mac.queue queueLength:vector ETV
attr interpolationmode sample-hold
attr source "count(packetPushed) - count(packetPopped) - count(packetRemoved) - count(packetDropped)"
attr title "queue length, vector"
vector 297 FanetSecureSybil.host[8].wlan[0].mac.queue packetPopped:vector(packetBytes) ETV
attr interpolationmode none
attr title "packet popped, vector(packetBytes)"
vector 298 FanetSecureSybil.host[8].wlan[0].mac.queue queueingTime:vector ETV
attr interpolationmode none
attr source queueingTime(packetPopped)
attr title "queueing times, vector"
attr unit s
vector 299 FanetSecureSybil.host[8].wlan[0].mac sentDownPk:vector(packetBytes) ETV
attr interpolationmode none
attr source packetSentToLower
attr title "packets sent to lower layer, vector(packetBytes)"
vector 300 FanetSecureSybil.host[12].wlan[0].mac rcvdPkFromHl:vector(packetBytes) ETV
attr interpolationmode none
attr source packetReceivedFromUpper
attr title "packets received from higher layer, vector(packetBytes)"
vector 301 FanetSecureSybil.host[12].wlan[0].mac.queue packetPushed:vector(packetBytes) ETV
attr interpolationmode none
attr title "packet pushed, vector(packetBytes)"
vector 302 FanetSecureSybil.host[12].wlan[0].mac.queue queueLength:vector ETV
attr interpolationmode sample-hold
attr source "count(packetPushed) - count(packetPopped) - count(packetRemoved) - count(packetDropped)"
attr title "queue length, vector"
vector 303 FanetSecureSybil.host[12].wlan[0].mac.queue packetPopped:vector(packetBytes) ETV
attr interpolationmode none
attr title "packet popped, vector(packetBytes)"
vector 304 FanetSecureSybil.host[12].wlan[0].mac.queue queueingTime:vector ETV
attr interpolationmode none
attr source queueingTime(packetPopped)
attr title "queueing times, vector"
attr unit s
vector 305 FanetSecureSybil.host[12].wlan[0].mac sentDownPk:vector(packetBytes) ETV
attr interpolationmode none
attr source packetSentToLower
attr title "packets sent to lower layer, vector(packetBytes)"
vector 306 FanetSecureSybil.attacker[14].wlan[0].mac rcvdPkFromHl:vector(packetBytes) ETV
attr interpolationmode none
attr source packetReceivedFromUpper
attr title "packets received from higher layer, vector(packetBytes)"
vector 307 FanetSecureSybil.attacker[14].wlan[0].mac.queue packetPushed:vector(packetBytes) ETV
attr interpolationmode none
attr title "packet pushed, vector(packetBytes)"
vector 308 FanetSecureSybil.attacker[14].wlan[0].mac.queue queueLength:vector ETV
attr interpolationmode sample-hold
attr source "count(packetPushed) - count(packetPopped) - count(packetRemoved) - count(packetDropped)"
attr title "queue length, vector"
vector 309 FanetSecureSybil.attacker[14].wlan[0].mac.queue packetPopped:vector(packetBytes) ETV
attr interpolationmode none
attr title "packet popped, vector(packetBytes)"
vector 310 FanetSecureSybil.attacker[14].wlan[0].mac.queue queueingTime:vector ETV
attr interpolationmode none
attr source queueingTime(packetPopped)
attr title "queueing times, vector"
attr unit s
vector 311 FanetSecureSybil.attacker[14].wlan[0].mac sentDownPk:vector(packetBytes) ETV
attr interpolationmode none
attr source packetSentToLower
attr title "packets sent to lower layer, vector(packetBytes)"
vector 312 FanetSecureSybil.host[17].wlan[0].mac rcvdPkFromLl:vector(packetBytes) ETV
attr interpolationmode none
attr source packetReceivedFromLower
attr title "packets received from lower layer, vector(packetBytes)"
vector 313 FanetSecureSybil.host[17].wlan[0].mac passedUpPk:vector(packetBytes) ETV
attr interpolationmode none
attr source packetSentToUpper
attr title "packets passed to higher layer, vector(packetBytes)"
vector 314 FanetSecureSybil.attacker[11].wlan[0].mac rcvdPkFromHl:vector(packetBytes) ETV
attr interpolationmode none
attr source packetReceivedFromUpper
attr title "packets received from higher layer, vector(packetBytes)"
vector 315 FanetSecureSybil.attacker[11].wlan[0].mac.queue packetPushed:vector(packetBytes) ETV
attr interpolationmode none
attr title "packet pushed, vector(packetBytes)"
vector 316 FanetSecureSybil.attacker[11].wlan[0].mac.queue queueLength:vector ETV
attr interpolationmode sample-hold
attr source "count(packetPushed) - count(packetPopped) - count(packetRemoved) - count(packetDropped)"
attr title "queue length, vector"
vector 317 FanetSecureSybil.attacker[11].wlan[0].mac.queue packetPopped:vector(packetBytes) ETV
attr interpolationmode none
attr title "packet popped, vector(packetBytes)"
vector 318 FanetSecureSybil.attacker[11].wlan[0].mac.queue queueingTime:vector ETV
attr interpolationmode none
attr source queueingTime(packetPopped)
attr title "queueing times, vector"
attr unit s
vector 319 FanetSecureSybil.attacker[11].wlan[0].mac sentDownPk:vector(packetBytes) ETV
attr interpolationmode none
attr source packetSentToLower
attr title "packets sent to lower layer, vector(packetBytes)"
vector 320 FanetSecureSybil.host[19].wlan[0].mac rcvdPkFromLl:vector(packetBytes) ETV
attr interpolationmode none
attr source packetReceivedFromLower
attr title "packets received from lower layer, vector(packetBytes)"
vector 321 FanetSecureSybil.host[19].wlan[0].mac passedUpPk:vector(packetBytes) ETV
attr interpolationmode none
attr source packetSentToUpper
attr title "packets passed to higher layer, vector(packetBytes)"
vector 322 FanetSecureSybil.host[19].wlan[0].mac rcvdPkFromHl:vector(packetBytes) ETV
attr interpolationmode none
attr source packetReceivedFromUpper
attr title "packets received from higher layer, vector(packetBytes)"
vector 323 FanetSecureSybil.host[19].wlan[0].mac.queue packetPushed:vector(packetBytes) ETV
attr interpolationmode none
attr title "packet pushed, vector(packetBytes)"
vector 324 FanetSecureSybil.host[19].wlan[0].mac.queue queueLength:vector ETV
attr interpolationmode sample-hold
attr source "count(packetPushed) - count(packetPopped) - count(packetRemoved) - count(packetDropped)"
attr title "queue length, vector"
vector 325 FanetSecureSybil.host[19].wlan[0].mac.queue packetPopped:vector(packetBytes) ETV
attr interpolationmode none
attr title "packet popped, vector(packetBytes)"
vector 326 FanetSecureSybil.host[19].wlan[0].mac.queue queueingTime:vector ETV
attr interpolationmode none
attr source queueingTime(packetPopped)
attr title "queueing times, vector"
attr unit s
vector 327 FanetSecureSybil.host[19].wlan[0].mac sentDownPk:vector(packetBytes) ETV
attr interpolationmode none
attr source packetSentToLower
attr title "packets sent to lower layer, vector(packetBytes)"
vector 328 FanetSecureSybil.host[10].wlan[0].mac rcvdPkFromLl:vector(packetBytes) ETV
attr interpolationmode none
attr source packetReceivedFromLower
attr title "packets received from lower layer, vector(packetBytes)"
vector 329 FanetSecureSybil.host[10].wlan[0].mac passedUpPk:vector(packetBytes) ETV
attr interpolationmode none
attr source packetSentToUpper
attr title "packets passed to higher layer, vector(packetBytes)"
vector 330 FanetSecureSybil.host[20].wlan[0].mac rcvdPkFromLl:vector(packetBytes) ETV
attr interpolationmode none
attr source packetReceivedFromLower
attr title "packets received from lower layer, vector(packetBytes)"
vector 331 FanetSecureSybil.host[20].wlan[0].mac passedUpPk:vector(packetBytes) ETV
attr interpolationmode none
attr source packetSentToUpper
attr title "packets passed to higher layer, vector(packetBytes)"
vector 332 FanetSecureSybil.attacker[15].wlan[0].mac rcvdPkFromLl:vector(packetBytes) ETV
attr interpolationmode none
attr source packetReceivedFromLower
attr title "packets received from lower layer, vector(packetBytes)"
vector 333 FanetSecureSybil.attacker[15].wlan[0].mac passedUpPk:vector(packetBytes) ETV
attr interpolationmode none
attr source packetSentToUpper
attr title "packets passed to higher layer, vector(packetBytes)"
vector 334 FanetSecureSybil.host[23].wlan[0].mac rcvdPkFromHl:vector(packetBytes) ETV
attr interpolationmode none
attr source packetReceivedFromUpper
attr title "packets received from higher layer, vector(packetBytes)"
vector 335 FanetSecureSybil.host[23].wlan[0].mac.queue packetPushed:vector(packetBytes) ETV
attr interpolationmode none
attr title "packet pushed, vector(packetBytes)"
vector 336 FanetSecureSybil.host[23].wlan[0].mac.queue queueLength:vector ETV
attr interpolationmode sample-hold
attr source "count(packetPushed) - count(packetPopped) - count(packetRemoved) - count(packetDropped)"
attr title "queue length, vector"
vector 337 FanetSecureSybil.host[23].wlan[0].mac.queue packetPopped:vector(packetBytes) ETV
attr interpolationmode none
attr title "packet popped, vector(packetBytes)"
vector 338 FanetSecureSybil.host[23].wlan[0].mac.queue queueingTime:vector ETV
attr interpolationmode none
attr source queueingTime(packetPopped)
attr title "queueing times, vector"
attr unit s
vector 339 FanetSecureSybil.host[23].wlan[0].mac sentDownPk:vector(packetBytes) ETV
attr interpolationmode none
attr source packetSentToLower
attr title "packets sent to lower layer, vector(packetBytes)"
vector 340 FanetSecureSybil.host[11].wlan[0].mac rcvdPkFromLl:vector(packetBytes) ETV
attr interpolationmode none
attr source packetReceivedFromLower
attr title "packets received from lower layer, vector(packetBytes)"
vector 341 FanetSecureSybil.host[11].wlan[0].mac passedUpPk:vector(packetBytes) ETV
attr interpolationmode none
attr source packetSentToUpper
attr title "packets passed to higher layer, vector(packetBytes)"
vector 342 FanetSecureSybil.attacker[15].wlan[0].mac rcvdPkFromHl:vector(packetBytes) ETV
attr interpolationmode none
attr source packetReceivedFromUpper
attr title "packets received from higher layer, vector(packetBytes)"
vector 343 FanetSecureSybil.attacker[15].wlan[0].mac.queue packetPushed:vector(packetBytes) ETV
attr interpolationmode none
attr title "packet pushed, vector(packetBytes)"
vector 344 FanetSecureSybil.attacker[15].wlan[0].mac.queue queueLength:vector ETV
attr interpolationmode sample-hold
attr source "count(packetPushed) - count(packetPopped) - count(packetRemoved) - count(packetDropped)"
attr title "queue length, vector"
vector 345 FanetSecureSybil.attacker[15].wlan[0].mac.queue packetPopped:vector(packetBytes) ETV
attr interpolationmode none
attr title "packet popped, vector(packetBytes)"
vector 346 FanetSecureSybil.attacker[15].wlan[0].mac.queue queueingTime:vector ETV
attr interpolationmode none
attr source queueingTime(packetPopped)
attr title "queueing times, vector"
attr unit s
vector 347 FanetSecureSybil.attacker[15].wlan[0].mac sentDownPk:vector(packetBytes) ETV
attr interpolationmode none
attr source packetSentToLower
attr title "packets sent to lower layer, vector(packetBytes)"
vector 348 FanetSecureSybil.host[22].wlan[0].mac rcvdPkFromHl:vector(packetBytes) ETV
attr interpolationmode none
attr source packetReceivedFromUpper
attr title "packets received from higher layer, vector(packetBytes)"
vector 349 FanetSecureSybil.host[22].wlan[0].mac.queue packetPushed:vector(packetBytes) ETV
attr interpolationmode none
attr title "packet pushed, vector(packetBytes)"
vector 350 FanetSecureSybil.host[22].wlan[0].mac.queue queueLength:vector ETV
attr interpolationmode sample-hold
attr source "count(packetPushed) - count(packetPopped) - count(packetRemoved) - count(packetDropped)"
attr title "queue length, vector"
vector 351 FanetSecureSybil.host[22].wlan[0].mac.queue packetPopped:vector(packetBytes) ETV
attr interpolationmode none
attr title "packet popped, vector(packetBytes)"
vector 352 FanetSecureSybil.host[22].wlan[0].mac.queue queueingTime:vector ETV
attr interpolationmode none
attr source queueingTime(packetPopped)
attr title "queueing times, vector"
attr unit s
vector 353 FanetSecureSybil.host[22].wlan[0].mac sentDownPk:vector(packetBytes) ETV
attr interpolationmode none
attr source packetSentToLower
attr title "packets sent to lower layer, vector(packetBytes)"
vector 354 FanetSecureSybil.host[13].wlan[0].mac rcvdPkFromLl:vector(packetBytes) ETV
attr interpolationmode none
attr source packetReceivedFromLower
attr title "packets received from lower layer, vector(packetBytes)"
vector 355 FanetSecureSybil.host[13].wlan[0].mac passedUpPk:vector(packetBytes) ETV
attr interpolationmode none
attr source packetSentToUpper
attr title "packets passed to higher layer, vector(packetBytes)"
vector 356 FanetSecureSybil.host[6].wlan[0].mac rcvdPkFromHl:vector(packetBytes) ETV
attr interpolationmode none
attr source packetReceivedFromUpper
attr title "packets received from higher layer, vector(packetBytes)"
vector 357 FanetSecureSybil.host[6].wlan[0].mac.queue packetPushed:vector(packetBytes) ETV
attr interpolationmode none
attr title "packet pushed, vector(packetBytes)"
vector 358 FanetSecureSybil.host[6].wlan[0].mac.queue queueLength:vector ETV
attr interpolationmode sample-hold
attr source "count(packetPushed) - count(packetPopped) - count(packetRemoved) - count(packetDropped)"
attr title "queue length, vector"
vector 359 FanetSecureSybil.host[6].wlan[0].mac.queue packetPopped:vector(packetBytes) ETV
attr interpolationmode none
attr title "packet popped, vector(packetBytes)"
vector 360 FanetSecureSybil.host[6].wlan[0].mac.queue queueingTime:vector ETV
attr interpolationmode none
attr source queueingTime(packetPopped)
attr title "queueing times, vector"
attr unit s
vector 361 FanetSecureSybil.host[6].wlan[0].mac sentDownPk:vector(packetBytes) ETV
attr interpolationmode none
attr source packetSentToLower
attr title "packets sent to lower layer, vector(packetBytes)"
vector 362 FanetSecureSybil.attacker[7].wlan[0].mac rcvdPkFromLl:vector(packetBytes) ETV
attr interpolationmode none
attr source packetReceivedFromLower
attr title "packets received from lower layer, vector(packetBytes)"
vector 363 FanetSecureSybil.attacker[7].wlan[0].mac passedUpPk:vector(packetBytes) ETV
attr interpolationmode none
attr source packetSentToUpper
attr title "packets passed to higher layer, vector(packetBytes)"
vector 364 FanetSecureSybil.host[0].wlan[0].mac rcvdPkFromHl:vector(packetBytes) ETV
attr interpolationmode none
attr source packetReceivedFromUpper
attr title "packets received from higher layer, vector(packetBytes)"
vector 365 FanetSecureSybil.host[0].wlan[0].mac.queue packetPushed:vector(packetBytes) ETV
attr interpolationmode none
attr title "packet pushed, vector(packetBytes)"
vector 366 FanetSecureSybil.host[0].wlan[0].mac.queue queueLength:vector ETV
attr interpolationmode sample-hold
attr source "count(packetPushed) - count(packetPopped) - count(packetRemoved) - count(packetDropped)"
attr title "queue length, vector"
vector 367 FanetSecureSybil.host[0].wlan[0].mac.queue packetPopped:vector(packetBytes) ETV
attr interpolationmode none
attr title "packet popped, vector(packetBytes)"
vector 368 FanetSecureSybil.host[0].wlan[0].mac.queue queueingTime:vector ETV
attr interpolationmode none
attr source queueingTime(packetPopped)
attr title "queueing times, vector"
attr unit s
vector 369 FanetSecureSybil.host[0].wlan[0].mac sentDownPk:vector(packetBytes) ETV
attr interpolationmode none
attr source packetSentToLower
attr title "packets sent to lower layer, vector(packetBytes)"
vector 370 FanetSecureSybil.host[24].wlan[0].mac rcvdPkFromHl:vector(packetBytes) ETV
attr interpolationmode none
attr source packetReceivedFromUpper
attr title "packets received from higher layer, vector(packetBytes)"
vector 371 FanetSecureSybil.host[24].wlan[0].mac.queue packetPushed:vector(packetBytes) ETV
attr interpolationmode none
attr title "packet pushed, vector(packetBytes)"
vector 372 FanetSecureSybil.host[24].wlan[0].mac.queue queueLength:vector ETV
attr interpolationmode sample-hold
attr source "count(packetPushed) - count(packetPopped) - count(packetRemoved) - count(packetDropped)"
attr title "queue length, vector"
vector 373 FanetSecureSybil.host[24].wlan[0].mac.queue packetPopped:vector(packetBytes) ETV
attr interpolationmode none
attr title "packet popped, vector(packetBytes)"
vector 374 FanetSecureSybil.host[24].wlan[0].mac.queue queueingTime:vector ETV
attr interpolationmode none
attr source queueingTime(packetPopped)
attr title "queueing times, vector"
attr unit s
vector 375 FanetSecureSybil.host[24].wlan[0].mac sentDownPk:vector(packetBytes) ETV
attr interpolationmode none
attr source packetSentToLower
attr title "packets sent to lower layer, vector(packetBytes)"
vector 376 FanetSecureSybil.host[1].wlan[0].mac rcvdPkFromHl:vector(packetBytes) ETV
attr interpolationmode none
attr source packetReceivedFromUpper
attr title "packets received from higher layer, vector(packetBytes)"
vector 377 FanetSecureSybil.host[1].wlan[0].mac.queue packetPushed:vector(packetBytes) ETV
attr interpolationmode none
attr title "packet pushed, vector(packetBytes)"
vector 378 FanetSecureSybil.host[1].wlan[0].mac.queue queueLength:vector ETV
attr interpolationmode sample-hold
attr source "count(packetPushed) - count(packetPopped) - count(packetRemoved) - count(packetDropped)"
attr title "queue length, vector"
vector 379 FanetSecureSybil.host[1].wlan[0].mac.queue packetPopped:vector(packetBytes) ETV
attr interpolationmode none
attr title "packet popped, vector(packetBytes)"
[...]
368	2063830 16264 7773 609412 10.488135023043 499.25933375291 536 0 0.183255715053 1.796368961136 0.13964787634643
369	2080094 17395 7773 609412 10.488135023043 499.25933375291 536 231 1084 536668 571501876
370	2097489 2538 7998 605033 10.680445637554 495.599825922401 79 215 1068 45134 39766942
371	2100027 2538 7998 605033 10.680445637554 495.599825922401 79 215 1068 45134 39766942
372	2102565 4694 7998 605033 10.680445637554 495.599825922401 158 0 1 79 79
373	2107259 2538 7998 605033 10.680445637554 495.599825922401 79 215 1068 45134 39766942
374	2109797 2347 7998 605033 10.680445637554 495.599825922401 79 0 0 0 0
375	2112144 2538 7998 605033 10.680445637554 495.599825922401 79 231 1084 46398 41231454
376	2114682 1741 8258 610227 10.928446163889 499.777267694008 55 215 1068 16090 8014370
377	2116423 1741 8258 610227 10.928446163889 499.777267694008 55 215 1068 16090 8014370
378	2118164 3252 8258 610227 10.928446163889 499.777267694008 110 0 1 55 55
379	2121416 1741 8258 610227 10.928446163889 499.777267694008 55 215 1068 16090 8014370
380	2123157 1626 8258 610227 10.928446163889 499.777267694008 55 0 0 0 0
381	2124783 1741 8258 610227 10.928446163889 499.777267694008 55 231 1084 16970 8543330
382	2126524 3826 8311 608315 10.928528096164 498.599247252232 123 56 231 18788 3801028
383	2130350 3826 8311 608315 10.928528096164 498.599247252232 123 40 215 16820 3231300
384	2134176 1641 8415 602004 11.027633703779 493.110809267964 52 215 215 11180 2403700
385	2135817 1641 8415 602004 11.027633703779 493.110809267964 52 215 215 11180 2403700
386	2137458 3074 8415 602004 11.027633703779 493.110809267964 104 0 1 52 52
387	2140532 1641 8415 602004 11.027633703779 493.110809267964 52 215 215 11180 2403700
388	2142173 1537 8415 602004 11.027633703779 493.110809267964 52 0 0 0 0
389	2143710 1641 8415 602004 11.027633703779 493.110809267964 52 231 231 12012 2774772
390	2145351 1547 8637 608743 11.235636963975 498.858577839566 49 215 215 10535 2265025
391	2146898 1547 8637 608743 11.235636963975 498.858577839566 49 215 215 10535 2265025
392	2148445 2898 8637 608743 11.235636963975 498.858577839566 98 0 1 49 49
393	2151343 1547 8637 608743 11.235636963975 498.858577839566 49 215 215 10535 2265025
394	2152890 1449 8637 608743 11.235636963975 498.858577839566 49 0 0 0 0
395	2154339 1547 8637 608743 11.235636963975 498.858577839566 49 231 231 11319 2614689
396	2155886 1547 8859 601788 11.458941150922 492.90366321569 49 215 1068 11388 3359424
397	2157433 1547 8859 601788 11.458941150922 492.90366321569 49 215 1068 11388 3359424
398	2158980 2896 8859 601788 11.458941150922 492.90366321569 98 0 1 49 49
399	2161876 1547 8859 601788 11.458941150922 492.90366321569 49 215 1068 11388 3359424
400	2163423 1448 8859 601788 11.458941150922 492.90366321569 49 0 0 0 0
401	2164871 1547 8859 601788 11.458941150922 492.90366321569 49 231 1084 12172 3736384
402	2166418 1588 8987 608864 11.481718765572 498.867992851883 52 40 40 2080 83200
403	2168006 1588 8987 608864 11.481718765572 498.867992851883 52 40 40 2080 83200
404	2169594 3072 8987 608864 11.481718765572 498.867992851883 104 0 1 52 52
405	2172666 1588 8987 608864 11.481718765572 498.867992851883 52 40 40 2080 83200
406	2174254 1536 8987 608864 11.481718765572 498.867992851883 52 0 0 0 0
407	2175790 1588 8987 608864 11.481718765572 498.867992851883 52 56 56 2912 163072
408	2177378 7451 9052 603107 11.481742317683 493.840011842013 238 56 1084 54604 27499608
409	2184829 6891 9052 603107 11.481742317683 493.840011842013 221 40 215 32640 6422600
410	2191720 1493 9262 605900 11.788795336615 496.352185453288 49 40 40 1960 78400
411	2193213 1493 9262 605900 11.788795336615 496.352185453288 49 40 40 1960 78400
412	2194706 2888 9262 605900 11.788795336615 496.352185453288 98 0 1 49 49
413	2197594 1493 9262 605900 11.788795336615 496.352185453288 49 40 40 1960 78400
414	2199087 1444 9262 605900 11.788795336615 496.352185453288 49 0 0 0 0
415	2200531 1493 9262 605900 11.788795336615 496.352185453288 49 56 56 2744 153664
416	2202024 1510 9696 602715 12.151893649716 493.678156135137 48 215 215 10320 2218800
417	2203534 1510 9696 602715 12.151893649716 493.678156135137 48 215 215 10320 2218800
418	2205044 2828 9696 602715 12.151893649716 493.678156135137 96 0 1 48 48
419	2207872 1510 9696 602715 12.151893649716 493.678156135137 48 215 215 10320 2218800
420	2209382 1414 9696 602715 12.151893649716 493.678156135137 48 0 0 0 0
421	2210796 1510 9696 602715 12.151893649716 493.678156135137 48 231 231 11088 2561328
422	2212306 1375 9854 598932 12.206326515879 490.454958032352 45 40 40 1800 72000
423	2213681 1375 9854 598932 12.206326515879 490.454958032352 45 40 40 1800 72000
424	2215056 2660 9854 598932 12.206326515879 490.454958032352 90 0 1 45 45
425	2217716 1375 9854 598932 12.206326515879 490.454958032352 45 40 40 1800 72000
426	2219091 1330 9854 598932 12.206326515879 490.454958032352 45 0 0 0 0
427	2220421 1375 9854 598932 12.206326515879 490.454958032352 45 56 56 2520 141120
428	2221796 1500 10226 603423 12.781567568891 494.106437223963 49 40 40 1960 78400
429	2223296 1500 10226 603423 12.781567568891 494.106437223963 49 40 40 1960 78400
430	2224796 2902 10226 603423 12.781567568891 494.106437223963 98 0 1 49 49
431	2227698 1500 10226 603423 12.781567568891 494.106437223963 49 40 40 1960 78400
432	2229198 1451 10226 603423 12.781567568891 494.106437223963 49 0 0 0 0
433	2230649 1500 10226 603423 12.781567568891 494.106437223963 49 56 56 2744 153664
434	2232149 1409 10395 593141 12.805291756522 485.949808156583 46 40 40 1840 73600
435	2233558 1409 10395 593141 12.805291756522 485.949808156583 46 40 40 1840 73600
436	2234967 2726 10395 593141 12.805291756522 485.949808156583 92 0 1 46 46
437	2237693 1409 10395 593141 12.805291756522 485.949808156583 46 40 40 1840 73600
438	2239102 1363 10395 593141 12.805291756522 485.949808156583 46 0 0 0 0
439	2240465 1409 10395 593141 12.805291756522 485.949808156583 46 56 56 2576 144256
440	2241874 7862 10448 606236 12.805315061745 496.678262723688 249 56 1084 79520 56430304
441	2249736 7106 10448 606236 12.805315061745 496.678262723688 226 40 1068 50972 27715056
442	2256842 4442 10452 604726 12.8053155237 495.056799085122 142 56 1084 33982 16684762
443	2261284 4112 10452 604726 12.8053155237 495.056799085122 132 40 215 21030 4227450
444	2265396 1646 10555 604337 12.917250334285 494.882003522943 52 215 1068 12033 3498099
445	2267042 1646 10555 604337 12.917250334285 494.882003522943 52 215 1068 12033 3498099
446	2268688 3082 10555 604337 12.917250334285 494.882003522943 104 0 1 52 52
447	2271770 1646 10555 604337 12.917250334285 494.882003522943 52 215 1068 12033 3498099
448	2273416 1541 10555 604337 12.917250334285 494.882003522943 52 0 0 0 0
449	2274957 1646 10555 604337 12.917250334285 494.882003522943 52 231 1084 12865 3896467
450	2276603 1500 10680 610111 12.991585638374 499.705452017948 49 40 40 1960 78400
451	2278103 1500 10680 610111 12.991585638374 499.705452017948 49 40 40 1960 78400
452	2279603 2902 10680 610111 12.991585638374 499.705452017948 98 0 1 49 49
453	2282505 1500 10680 610111 12.991585638374 499.705452017948 49 40 40 1960 78400
454	2284005 1451 10680 610111 12.991585638374 499.705452017948 49 0 0 0 0
455	2285456 1500 10680 610111 12.991585638374 499.705452017948 49 56 56 2744 153664
456	2286956 6727 10733 609745 12.991609044958 499.36370416213 214 56 1084 54353 32999339
457	2293683 6167 10733 609745 12.991609044958 499.36370416213 197 40 1068 32773 11924219
458	2299850 1436 10837 595494 13.009107524995 487.612282384651 47 40 40 1880 75200
459	2301286 1436 10837 595494 13.009107524995 487.612282384651 47 40 40 1880 75200
460	2302722 2778 10837 595494 13.009107524995 487.612282384651 94 0 1 47 47
461	2305500 1436 10837 595494 13.009107524995 487.612282384651 47 40 40 1880 75200
462	2306936 1389 10837 595494 13.009107524995 487.612282384651 47 0 0 0 0
463	2308325 1436 10837 595494 13.009107524995 487.612282384651 47 56 56 2632 147392
464	2309761 1805 11012 602436 13.121687264647 493.562666585199 57 215 1068 15667 7012421
465	2311566 1805 11012 602436 13.121687264647 493.562666585199 57 215 1068 15667 7012421
466	2313371 3374 11012 602436 13.121687264647 493.562666585199 114 0 1 57 57
467	2316745 1805 11012 602436 13.121687264647 493.562666585199 57 215 1068 15667 7012421
468	2318550 1687 11012 602436 13.121687264647 493.562666585199 57 0 0 0 0
469	2320237 1805 11012 602436 13.121687264647 493.562666585199 57 231 1084 16579 7528357
470	2322042 5576 11065 609034 13.121768847158 498.882274785011 178 56 231 28343 5831833
471	2327618 5576 11065 609034 13.121768847158 498.882274785011 178 40 215 25495 4970425
472	2333194 1525 11219 606915 13.326198428404 497.461191162004 50 40 40 2000 80000
473	2334719 1525 11219 606915 13.326198428404 497.461191162004 50 40 40 2000 80000
474	2336244 2950 11219 606915 13.326198428404 497.461191162004 100 0 1 50 50
475	2339194 1525 11219 606915 13.326198428404 497.461191162004 50 40 40 2000 80000
476	2340719 1475 11219 606915 13.326198428404 497.461191162004 50 0 0 0 0
477	2342194 1525 11219 606915 13.326198428404 497.461191162004 50 56 56 2800 156800
478	2343719 1735 11347 604500 13.360787688289 494.935169685631 55 215 1068 15237 6919971
479	2345454 1735 11347 604500 13.360787688289 494.935169685631 55 215 1068 15237 6919971
480	2347189 3242 11347 604500 13.360787688289 494.935169685631 110 0 1 55 55
481	2350431 1735 11347 604500 13.360787688289 494.935169685631 55 215 1068 15237 6919971
482	2352166 1621 11347 604500 13.360787688289 494.935169685631 55 0 0 0 0
483	2353787 1735 11347 604500 13.360787688289 494.935169685631 55 231 1084 16117 7421635
484	2355522 1672 11510 602118 13.442657440901 493.140016060787 53 215 215 11395 2449925
485	2357194 1672 11510 602118 13.442657440901 493.140016060787 53 215 215 11395 2449925
486	2358866 3132 11510 602118 13.442657440901 493.140016060787 106 0 1 53 53
487	2361998 1672 11510 602118 13.442657440901 493.140016060787 53 215 215 11395 2449925
488	2363670 1566 11510 602118 13.442657440901 493.140016060787 53 0 0 0 0
489	2365236 1672 11510 602118 13.442657440901 493.140016060787 53 231 231 12243 2828133
490	2366908 1449 11635 597368 13.472517372575 489.176391670478 46 215 215 9890 2126350
491	2368357 1449 11635 597368 13.472517372575 489.176391670478 46 215 215 9890 2126350
492	2369806 2714 11635 597368 13.472517372575 489.176391670478 92 0 1 46 46
493	2372520 1449 11635 597368 13.472517372575 489.176391670478 46 215 215 9890 2126350
494	2373969 1357 11635 597368 13.472517372575 489.176391670478 46 0 0 0 0
495	2375326 1449 11635 597368 13.472517372575 489.176391670478 46 231 231 10626 2454606
496	2376775 1811 11795 603814 13.579456198495 494.280905635097 57 215 1068 16520 8106820
497	2378586 1811 11795 603814 13.579456198495 494.280905635097 57 215 1068 16520 8106820
498	2380397 3384 11795 603814 13.579456198495 494.280905635097 114 0 1 57 57
499	2383781 1811 11795 603814 13.579456198495 494.280905635097 57 215 1068 16520 8106820
500	2385592 1692 11795 603814 13.579456198495 494.280905635097 57 0 0 0 0
501	2387284 1811 11795 603814 13.579456198495 494.280905635097 57 231 1084 17432 8650052
502	2389095 1437 12017 599719 13.700121452566 491.143689164892 47 40 40 1880 75200
503	2390532 1437 12017 599719 13.700121452566 491.143689164892 47 40 40 1880 75200
504	2391969 2780 12017 599719 13.700121452566 491.143689164892 94 0 1 47 47
505	2394749 1437 12017 599719 13.700121452566 491.143689164892 47 40 40 1880 75200
506	2396186 1390 12017 599719 13.700121452566 491.143689164892 47 0 0 0 0
507	2397576 1437 12017 599719 13.700121452566 491.143689164892 47 56 56 2632 147392
508	2399013 6707 12070 608106 13.700145265085 498.367100637132 213 56 1084 54560 29564148
509	2405720 6082 12070 608106 13.700145265085 498.367100637132 194 40 215 30860 6200900
510	2411802 1500 12123 609519 13.700872510672 499.274431094525 49 40 40 1960 78400
511	2413302 1500 12123 609519 13.700872510672 499.274431094525 49 40 40 1960 78400
512	2414802 2902 12123 609519 13.700872510672 499.274431094525 98 0 1 49 49
513	2417704 1500 12123 609519 13.700872510672 499.274431094525 49 40 40 1960 78400
514	2419204 1451 12123 609519 13.700872510672 499.274431094525 49 0 0 0 0
515	2420655 1500 12123 609519 13.700872510672 499.274431094525 49 56 56 2744 153664
516	2422155 1512 12343 602549 13.917730017565 493.587366987486 48 215 215 10320 2218800
517	2423667 1512 12343 602549 13.917730017565 493.587366987486 48 215 215 10320 2218800
518	2425179 2832 12343 602549 13.917730017565 493.587366987486 96 0 1 48 48
519	2428011 1512 12343 602549 13.917730017565 493.587366987486 48 215 215 10320 2218800
520	2429523 1416 12343 602549 13.917730017565 493.587366987486 48 0 0 0 0
521	2430939 1512 12343 602549 13.917730017565 493.587366987486 48 231 231 11088 2561328
522	2432451 12129 12396 605953 13.917811633717 496.352208562961 381 56 1084 175299 151485161
523	2444580 8277 12396 605953 13.917811633717 496.352208562961 264 40 1068 44247 12520121
524	2452857 2072 12710 594030 14.255966332275 486.539542751853 65 215 1068 30182 23798206
525	2454929 2072 12710 594030 14.255966332275 486.539542751853 65 215 1068 30182 23798206
526	2457001 3846 12710 594030 14.255966332275 486.539542751853 130 0 1 65 65
527	2460847 2072 12710 594030 14.255966332275 486.539542751853 65 215 1068 30182 23798206
528	2462919 1936 12710 594030 14.255966332275 486.539542751853 65 0 0.059542043398 0.059542043398 0.0035452549320093
529	2464855 2072 12710 594030 14.255966332275 486.539542751853 65 231 1084 31222 24780670
530	2466927 1467 12967 605728 14.571551543195 496.224751700643 48 40 40 1920 76800
531	2468394 1467 12967 605728 14.571551543195 496.224751700643 48 40 40 1920 76800
532	2469861 2838 12967 605728 14.571551543195 496.224751700643 96 0 1 48 48
533	2472699 1467 12967 605728 14.571551543195 496.224751700643 48 40 40 1920 76800
534	2474166 1419 12967 605728 14.571551543195 496.224751700643 48 0 0 0 0
535	2475585 1467 12967 605728 14.571551543195 496.224751700643 48 56 56 2688 150528
536	2477052 1612 13139 603266 14.636627640575 494.014415948184 51 215 215 10965 2357475
537	2478664 1612 13139 603266 14.636627640575 494.014415948184 51 215 215 10965 2357475
538	2480276 3020 13139 603266 14.636627640575 494.014415948184 102 0 1 51 51
539	2483296 1612 13139 603266 14.636627640575 494.014415948184 51 215 215 10965 2357475
540	2484908 1510 13139 603266 14.636627640575 494.014415948184 51 0 0 0 0
541	2486418 1612 13139 603266 14.636627640575 494.014415948184 51 231 231 11781 2721411
542	2488030 1558 13296 606163 14.786183428951 496.678238781172 51 40 40 2040 81600
543	2489588 1558 13296 606163 14.786183428951 496.678238781172 51 40 40 2040 81600
544	2491146 3014 13296 606163 14.786183428951 496.678238781172 102 0 1 51 51
545	2494160 1558 13296 606163 14.786183428951 496.678238781172 51 40 40 2040 81600
546	2495718 1507 13296 606163 14.786183428951 496.678238781172 51 0 0 0 0
547	2497225 1558 13296 606163 14.786183428951 496.678238781172 51 56 56 2856 159936
548	2498783 15752 13626 609408 15 499.200173532735 484 1000 1000 484000 484000000
549	2514535 15752 13678 609409 15 499.200173532735 484 1008 1008 487872 491774976
550	2530287 2688 13733 434403 15.000365535689 358.845145858987 85 1084 1084 92140 99879760
551	2532975 4098 13735 435340 15.000365935961 360.019255406743 128 1084 1084 138752 150407168
552	2537073 5403 13737 568317 15.000366192605 464.375891956352 166 1084 1084 179944 195059296
553	2542476 989 13744 53423 15.000366485819 48.220407371703 32 1084 1084 34688 37601792
554	2543465 5342 13746 427186 15.000366570824 353.738789841322 165 1084 1084 178860 193884240
555	2548807 658 13748 231975 15.000366596527 193.961286865279 20 1084 1084 21680 23501120
556	2549465 3148 13844 401707 15.000732421686 332.902508120401 98 1084 1084 106232 115155488
557	2552613 4889 13846 505308 15.000732439657 411.549354188042 149 1084 1084 161516 175083344
558	2557502 591 13854 363565 15.000732833243 301.978849420577 18 1084 1084 19512 21151008
559	2558093 3628 21235 512953 21.664301166842 418.375259890102 113 1084 1084 122492 132781328
560	2561721 4166 25438 371319 25.413331781113 308.660838830853 128 1084 1084 138752 150407168
561	2565887 9263 68094 610176 60.503003495927 499.70547600374 291 56 1084 139724 124901696
562	2575150 6244 68094 610176 60.503003495927 499.70547600374 199 40 1068 36812 15567616
563	2581394 3571 77104 292285 67.981645137052 241.54720783805 110 1084 1084 119240 129256160
564	2584965 682 77106 455117 67.981645351829 375.752714534566 21 1084 1084 22764 24676176
565	2585647 1005 77108 450189 67.981645570935 371.648940630155 31 1084 1084 33604 36426736
566	2586652 3019 77662 252341 68.358075339012 210.560619904451 92 1084 1084 99728 108105152
567	2589671 3380 105131 384011 91.626498838723 318.116603299835 103 1084 1084 111652 121030768
568	2593051 2402 115860 195067 100.90141845539 165.594878144569 73 1084 1084 79132 85779088
569	2595453 2004 127127 419944 109.155122551483 347.44345014144 61 1084 1084 66124 71678416
570	2597457 3682 135534 505305 115.961111990544 411.549354118227 112 1008 1008 112896 113799168
571	2601139 3462 135534 505305 115.961111990544 411.549354118227 112 1 112 6328 474600
572	2604601 3682 135535 505306 115.961111990544 411.549354118227 112 1000 1000 112000 112000000
573	2608283 93329 135535 610491 0.1 500 5000 0 160000 8960000 806400000000
574	2701612 4783 135535 505306 115.961111990544 411.549354118227 112 0.000366132645 0.001098895135 0.077647595394 5.6876871465735e-05
575	2706395 3564 135535 505306 115.961111990544 411.549354118227 112 94 395 28118 8429826
576	2709959 330 135539 424477 115.961112206287 351.137721888078 10 1084 1084 10840 11750560
577	2710289 5895 135547 609467 115.961112466971 499.259699776059 179 1084 1084 194036 210335024
578	2716184 1610 177610 505295 150.316114022005 411.549353781016 49 1084 1084 53116 57577744
579	2717794 2696 182518 519458 154.808638727514 423.517884212342 82 1084 1084 88888 96354592
580	2720490 1117 184126 536349 156.265448372597 438.071433730138 34 1084 1084 36856 39951904
581	2721607 6377 195065 609469 165.594878136325 499.259700173018 194 1084 1084 210296 227960864
582	2727984 4771 204062 598571 173.024221106735 490.084607563831 145 1084 1084 157180 170383120
583	2732755 756 204064 545072 173.024221172525 446.063494744259 23 1084 1084 24932 27026288
584	2733511 1548 207782 366672 175.472161673475 304.619592846914 47 1084 1084 50948 55227632
585	2735059 2400 242076 297733 202.213239196669 245.178022512874 73 1084 1084 79132 85779088
586	2737459 2165 262531 327568 218.930568624608 270.951844528342 66 1084 1084 71544 77553696
587	2739624 1118 262628 465167 218.930934130691 382.250921264043 34 1084 1084 36856 39951904
588	2740742 2399 262632 353662 218.93093459075 294.549093562009 73 1084 1084 79132 85779088
589	2743141 658 262636 401703 218.930934721217 332.90250802072 20 1084 1084 21680 23501120
590	2743799 4704 273029 519460 226.818838908297 423.517884258143 143 1084 1084 155012 168033008
591	2748503 952 350760 375296 291.761438828989 311.496824396834 29 1084 1084 31436 34076624
592	2749455 5924 392254 609465 325.542227875354 499.259699598021 180 1084 1084 195120 211510080
593	2755379 560 392256 410309 325.542227897487 339.389683492538 17 1084 1084 18428 19975952
594	2755939 131 416785 424473 343.902162794714 351.13772141951 4 1084 1084 4336 4700224
595	2756070 1972 424475 503038 351.137721868182 410.096124769153 60 1084 1084 65040 70503360
596	2758042 3852 439247 499601 363.374379722586 407.229610524547 117 1084 1084 126828 137481552
597	2761894 264 440446 453810 363.878320977589 374.566162398663 8 1084 1084 8672 9400448
598	2762158 1020 443502 471893 366.217746932431 387.717572188211 31 1084 1084 33604 36426736
599	2763178 625 495703 521562 405.258059165977 425.80152749219 19 1084 1084 20596 22326064
600	2763803 560 509865 540441 415.260184436176 441.947618380818 17 1084 1084 18428 19975952
601	2764363 92902 610491 610491 0.1 500 5000 0 0 0 0

