version 2
run SecureSybil-0-20220612-12:53:59-43061
attr configname SecureSybil
attr datetime 20220612-12:53:59
attr experiment SecureSybil
attr inifile omnetpp.ini
attr iterationvars ""
attr iterationvarsf ""
attr measurement ""
attr network FanetSecureSybil
attr processid 43061
attr repetition 0
attr replication #0
attr resultdir results
attr runnumber 0
attr seedset 0
param *.host[0].numApps 1
param *.host[0].app[0].typename "\"UdpBasicApp\""
param *.host[0].app[0].startTime 11s
param *.host[0].app[0].destAddresses "\"host[1]\""
param *.host[0].app[0].destPort 5000
param *.host[0].app[0].messageLength 1000B
param *.host[0].app[0].sendInterval exponential(1s)
param *.host[0].app[0].packetName "\"UDPdata\""
param *.host[1].numApps 1
param *.host[1].app[0].typename "\"UdpSink\""
param *.host[1].app[0].localPort 5000
param **.wlan[*].bitrate 24Mbps
param *.configurator.addStaticRoutes false
param **.netmaskRoutes "\"\""
param **.arp.typename "\"GlobalArp\""
param *.host*.wlan[0].typename "\"AckingWirelessInterface\""
param *.host*.wlan[0].radio.transmitter.communicationRange 400m
param *.host*.wlan[0].radio.displayCommunicationRange true
param *.visualizer.osgVisualizer.typename "\"IntegratedOsgVisualizer\""
param *.visualizer.osgVisualizer.sceneVisualizer.clearColor "\"skyblue\""
param *.visualizer.osgVisualizer.sceneVisualizer.sceneImage "\"showcases/desert\""
param *.visualizer.osgVisualizer.sceneVisualizer.sceneImageSize 5000m
param *.visualizer.osgVisualizer.sceneVisualizer.axisLength 1000m
param *.visualizer.osgVisualizer.sceneVisualizer.sceneMinX -2000m
param *.visualizer.osgVisualizer.sceneVisualizer.sceneMinY -2000m
param *.visualizer.osgVisualizer.sceneVisualizer.sceneMinZ 0m
param *.visualizer.osgVisualizer.sceneVisualizer.sceneMaxX 3000m
param *.visualizer.osgVisualizer.sceneVisualizer.sceneMaxY 3000m
param *.visualizer.osgVisualizer.sceneVisualizer.sceneMaxZ 1000m
param *.visualizer.osgVisualizer.networkNodeVisualizer.displayModuleName false
param *.visualizer.*.mobilityVisualizer.displayMobility true
param *.visualizer.*.mobilityVisualizer.displayPositions true
param *.visualizer.*.mobilityVisualizer.displayOrientations true
param *.visualizer.*.mobilityVisualizer.displayVelocities true
param *.visualizer.*.mobilityVisualizer.displayMovementTrails true
param *.visualizer.*.mobilityVisualizer.animationSpeed 1
param *.visualizer.*.packetDropVisualizer.displayPacketDrops false
param *.visualizer.*.packetDropVisualizer.labelFormat "\"%n/reason: %r\""
param *.visualizer.*.packetDropVisualizer.fadeOutTime 10s
param **.constraintAreaMinX 0m
param **.constraintAreaMinY 0m
param **.constraintAreaMinZ 40m
param **.constraintAreaMaxX 2500m
param **.constraintAreaMaxY 2000m
param **.constraintAreaMaxZ 200m
param *.visualizer.*.mediumVisualizer.signalPropagationAnimationSpeed 500/3e8
param *.visualizer.*.mediumVisualizer.signalTransmissionAnimationSpeed 50000/3e8
param *.visualizer.*.mediumVisualizer.displaySignals false
param *.visualizer.*.mediumVisualizer.displayTransmissions false
param *.visualizer.*.mediumVisualizer.displayReceptions false
param *.visualizer.*.mediumVisualizer.transmissionPlacementPriority 10
param *.visualizer.*.mediumVisualizer.receptionPlacementPriority 10
param *.visualizer.*.mediumVisualizer.displaySignals false
param *.visualizer.*.mediumVisualizer.signalFadingDistance 50m
param *.visualizer.*.mediumVisualizer.signalRingSize 50m
param *.visualizer.osgVisualizer.mediumVisualizer.signalShape "\"both\""
param *.host[*].osgModel "\"3d/drone.ive.100.scale.0,0,90.rot\""
param *.host[*].mobility.typename "\"MassMobility\""
param *.host[*].mobility.changeInterval 1s
param *.host[*].mobility.initialMovementHeading "uniform(0deg, 360deg)"
param *.host[*].mobility.initialMovementElevation "uniform(-90deg, 90deg)"
param *.host[*].mobility.angleDelta uniform(-10deg,10deg)
param *.host[*].mobility.rotationAxisAngle uniform(-10deg,10deg)
param *.host[*].mobility.speed uniform(10mps,20mps)
param *.host[*].mobility.faceForward false
param *.attacker[*].mobility.typename "\"MassMobility\""
param *.attacker[*].mobility.changeInterval 1s
param *.attacker[*].mobility.initialMovementHeading "uniform(0deg, 360deg)"
param *.attacker[*].mobility.initialMovementElevation "uniform(-90deg, 90deg)"
param *.attacker[*].mobility.angleDelta uniform(-10deg,10deg)
param *.attacker[*].mobility.rotationAxisAngle uniform(-10deg,10deg)
param *.attacker[*].mobility.speed uniform(10mps,20mps)
param *.attacker[*].mobility.faceForward false
param *.attacker*.wlan[0].typename "\"AckingWirelessInterface\""
param *.attacker*.wlan[0].radio.transmitter.communicationRange 400m
param *.attacker*.wlan[0].radio.displayCommunicationRange true

vector 0 FanetSecureSybil.host[0].wlan[0].radio radioMode:vector ETV
attr interpolationmode sample-hold
attr source radioModeChanged
attr title "Radio mode, vector"
vector 1 FanetSecureSybil.host[1].wlan[0].radio radioMode:vector ETV
attr interpolationmode sample-hold
attr source radioModeChanged
attr title "Radio mode, vector"
vector 2 FanetSecureSybil.host[2].wlan[0].radio radioMode:vector ETV
attr interpolationmode sample-hold
attr source radioModeChanged
attr title "Radio mode, vector"
vector 3 FanetSecureSybil.host[0].wlan[0].radio receptionState:vector ETV
attr interpolationmode sample-hold
attr source receptionStateChanged
attr title "Radio reception state, vector"
vector 4 FanetSecureSybil.host[0].wlan[0].radio transmissionState:vector ETV
attr interpolationmode sample-hold
attr source transmissionStateChanged
attr title "Radio transmission state, vector"
vector 5 FanetSecureSybil.host[1].wlan[0].radio receptionState:vector ETV
attr interpolationmode sample-hold
attr source receptionStateChanged
attr title "Radio reception state, vector"
vector 6 FanetSecureSybil.host[1].wlan[0].radio transmissionState:vector ETV
attr interpolationmode sample-hold
attr source transmissionStateChanged
attr title "Radio transmission state, vector"
vector 7 FanetSecureSybil.host[2].wlan[0].radio receptionState:vector ETV
attr interpolationmode sample-hold
attr source receptionStateChanged
attr title "Radio reception state, vector"
vector 8 FanetSecureSybil.host[2].wlan[0].radio transmissionState:vector ETV
attr interpolationmode sample-hold
attr source transmissionStateChanged
attr title "Radio transmission state, vector"
vector 9 FanetSecureSybil.host[0].wlan[0].mac rcvdPkFromHl:vector(packetBytes) ETV
attr interpolationmode none
attr source packetReceivedFromUpper
attr title "packets received from higher layer, vector(packetBytes)"
vector 10 FanetSecureSybil.host[0].wlan[0].mac.queue packetPushed:vector(packetBytes) ETV
attr interpolationmode none
attr title "packet pushed, vector(packetBytes)"
vector 11 FanetSecureSybil.host[0].wlan[0].mac.queue queueLength:vector ETV
attr interpolationmode sample-hold
attr source "count(packetPushed) - count(packetPopped) - count(packetRemoved) - count(packetDropped)"
attr title "queue length, vector"
vector 12 FanetSecureSybil.host[0].wlan[0].mac.queue packetPopped:vector(packetBytes) ETV
attr interpolationmode none
attr title "packet popped, vector(packetBytes)"
vector 13 FanetSecureSybil.host[0].wlan[0].mac.queue queueingTime:vector ETV
attr interpolationmode none
attr source queueingTime(packetPopped)
attr title "queueing times, vector"
attr unit s
vector 14 FanetSecureSybil.host[0].wlan[0].mac sentDownPk:vector(packetBytes) ETV
attr interpolationmode none
attr source packetSentToLower
attr title "packets sent to lower layer, vector(packetBytes)"
vector 15 FanetSecureSybil.host[1].wlan[0].mac rcvdPkFromHl:vector(packetBytes) ETV
attr interpolationmode none
attr source packetReceivedFromUpper
attr title "packets received from higher layer, vector(packetBytes)"
vector 16 FanetSecureSybil.host[1].wlan[0].mac.queue packetPushed:vector(packetBytes) ETV
attr interpolationmode none
attr title "packet pushed, vector(packetBytes)"
vector 17 FanetSecureSybil.host[1].wlan[0].mac.queue queueLength:vector ETV
attr interpolationmode sample-hold
attr source "count(packetPushed) - count(packetPopped) - count(packetRemoved) - count(packetDropped)"
attr title "queue length, vector"
vector 18 FanetSecureSybil.host[1].wlan[0].mac.queue packetPopped:vector(packetBytes) ETV
attr interpolationmode none
attr title "packet popped, vector(packetBytes)"
vector 19 FanetSecureSybil.host[1].wlan[0].mac.queue queueingTime:vector ETV
attr interpolationmode none
attr source queueingTime(packetPopped)
attr title "queueing times, vector"
attr unit s
vector 20 FanetSecureSybil.host[1].wlan[0].mac sentDownPk:vector(packetBytes) ETV
attr interpolationmode none
attr source packetSentToLower
attr title "packets sent to lower layer, vector(packetBytes)"
vector 21 FanetSecureSybil.host[0].app[0] packetSent:vector(packetBytes) ETV
attr interpolationmode none
attr source packetSent
attr title "packets sent, vector(packetBytes)"
vector 22 FanetSecureSybil.host[0].udp packetSent:vector(packetBytes) ETV
attr interpolationmode none
attr source packetSent
attr title "packets sent, vector(packetBytes)"
vector 23 FanetSecureSybil.host[2].wlan[0].mac rcvdPkFromHl:vector(packetBytes) ETV
attr interpolationmode none
attr source packetReceivedFromUpper
attr title "packets received from higher layer, vector(packetBytes)"
vector 24 FanetSecureSybil.host[2].wlan[0].mac.queue packetPushed:vector(packetBytes) ETV
attr interpolationmode none
attr title "packet pushed, vector(packetBytes)"
vector 25 FanetSecureSybil.host[2].wlan[0].mac.queue queueLength:vector ETV
attr interpolationmode sample-hold
attr source "count(packetPushed) - count(packetPopped) - count(packetRemoved) - count(packetDropped)"
attr title "queue length, vector"
vector 26 FanetSecureSybil.host[2].wlan[0].mac.queue packetPopped:vector(packetBytes) ETV
attr interpolationmode none
attr title "packet popped, vector(packetBytes)"
vector 27 FanetSecureSybil.host[2].wlan[0].mac.queue queueingTime:vector ETV
attr interpolationmode none
attr source queueingTime(packetPopped)
attr title "queueing times, vector"
attr unit s
vector 28 FanetSecureSybil.host[2].wlan[0].mac sentDownPk:vector(packetBytes) ETV
attr interpolationmode none
attr source packetSentToLower
attr title "packets sent to lower layer, vector(packetBytes)"
vector 29 FanetSecureSybil.host[0].wlan[0].mac rcvdPkFromLl:vector(packetBytes) ETV
attr interpolationmode none
attr source packetReceivedFromLower
attr title "packets received from lower layer, vector(packetBytes)"
vector 30 FanetSecureSybil.host[0].wlan[0].mac passedUpPk:vector(packetBytes) ETV
attr interpolationmode none
attr source packetSentToUpper
attr title "packets passed to higher layer, vector(packetBytes)"
vector 31 FanetSecureSybil.host[2].wlan[0].mac rcvdPkFromLl:vector(packetBytes) ETV
attr interpolationmode none
attr source packetReceivedFromLower
attr title "packets received from lower layer, vector(packetBytes)"
vector 32 FanetSecureSybil.host[2].wlan[0].mac passedUpPk:vector(packetBytes) ETV
attr interpolationmode none
attr source packetSentToUpper
attr title "packets passed to higher layer, vector(packetBytes)"
vector 33 FanetSecureSybil.host[1].wlan[0].mac rcvdPkFromLl:vector(packetBytes) ETV
attr interpolationmode none
attr source packetReceivedFromLower
attr title "packets received from lower layer, vector(packetBytes)"
vector 34 FanetSecureSybil.host[1].wlan[0].mac passedUpPk:vector(packetBytes) ETV
attr interpolationmode none
attr source packetSentToUpper
attr title "packets passed to higher layer, vector(packetBytes)"
vector 35 FanetSecureSybil.host[0].app[0] throughput:vector ETV
attr source throughput(packetReceived)
attr title "throughput, vector"
attr unit bps
vector 36 FanetSecureSybil.host[1].app[0] throughput:vector ETV
attr source throughput(packetReceived)
attr title "throughput, vector"
attr unit bps
0	0	0	0
0	0	0	0
0	0	0	4
1	0	0	0
1	0	0	0
1	0	0	4
2	0	0	0
2	0	0	0
2	0	0	4
3	0	0	1
3	10696	296.724746742799	3
3	10699	296.724885742799	1
3	11074	306.608846807829	3
3	11077	306.608985807829	1
3	11573	320.429261088923	3
3	11576	320.429400088923	1
3	13492	372.876247027494	3
3	13498	372.876386027494	1
3	13950	386.162816091259	3
3	13953	386.162955091259	1
3	14360	398.13423229351	3
3	14363	398.13437129351	1
3	14603	404.272398697503	3
3	14606	404.272537697503	1
3	15065	417.664290089096	3
3	15068	417.664429089096	1
3	16536	459.022435460461	3
3	16539	459.022574460461	1
3	16796	466.071672213145	3
3	16799	466.071811213145	1
4	0	0	1
4	319	10.488135023043	2
4	322	10.488274023043	1
4	823	23.930792463944	2
4	826	23.930931463944	1
4	1345	38.716975892895	2
4	1348	38.717114892895	1
4	1669	47.58186567342	2
4	1672	47.58200467342	1
4	1978	56.218973407523	2
4	1981	56.219112407523	1
4	2368	67.037476729603	2
4	2371	67.037615729603	1
4	2887	81.802071381827	2
4	2890	81.802210381827	1
4	3396	95.969300947619	2
4	3399	95.969439947619	1
4	3672	103.669380634093	2
4	3675	103.669519634093	1
4	4068	115.058591435665	2
4	4071	115.058730435665	1
4	4461	125.871320194566	2
4	4464	125.871459194566	1
4	4976	139.655842105859	2
4	4979	139.655981105859	1
4	5465	153.337102711667	2
4	5468	153.337241711667	1
4	5925	165.837095188909	2
4	5928	165.837234188909	1
4	6336	177.628001370468	2
4	6339	177.628140370468	1
4	6613	184.902147662361	2
4	6616	184.902286662361	1
4	6794	190.148934950122	2
4	6797	190.149073950122	1
4	7239	202.295904278291	2
4	7242	202.296043278291	1
4	7584	211.857202001849	2
4	7587	211.857341001849	1
4	7911	220.598901787309	2
4	7914	220.599040787309	1
4	8144	226.847232396251	2
4	8147	226.847371396251	1
4	8395	233.938802676278	2
4	8398	233.938941676278	1
4	8934	248.782097015067	2
4	8937	248.782236015067	1
4	9119	253.914465582932	2
4	9122	253.914604582932	1
4	9460	263.698168648409	2
4	9463	263.698307648409	1
4	9997	278.427363550293	2
4	10000	278.427502550293	1
4	10289	285.988759379836	2
4	10292	285.988898379836	1
4	10517	291.852529186292	2
4	10520	291.852668186292	1
4	10837	300.561057187153	2
4	10840	300.561196187153	1
4	11218	310.661225719379	2
4	11221	310.661364719379	1
4	11544	319.92428449914	2
4	11547	319.92442349914	1
4	11820	327.252939245665	2
4	11823	327.253078245665	1
4	12277	340.40817749221	2
4	12280	340.40831649221	1
4	12474	345.741223755759	2
4	12477	345.741362755759	1
4	13012	360.034137889744	2
4	13015	360.034276889744	1
4	13429	371.421755435878	2
4	13432	371.421894435878	1
4	13864	383.80402124487	2
4	13867	383.80416024487	1
4	14387	398.658935548739	2
4	14390	398.659074548739	1
4	14886	412.476137690247	2
4	14889	412.476276690247	1
4	15397	426.878234625329	2
4	15400	426.878373625329	1
4	15887	440.832093472128	2
4	15890	440.832232472128	1
4	16241	450.890757315793	2
4	16244	450.890896315793	1
4	16551	459.190113849473	2
4	16554	459.190252849473	1
4	16976	470.961257850286	2
4	16979	470.961396850286	1
4	17174	476.046373732388	2
4	17177	476.046512732388	1
4	17573	487.765945114661	2
4	17576	487.766084114661	1
4	17978	499.438793514855	2
4	17981	499.438932514855	1
5	0	0	1
5	12946	358.554558991664	3
5	12949	358.554697991664	1
5	13279	367.297791190475	3
5	13282	367.297930190475	1
5	13430	371.421756537646	3
5	13433	371.421895537646	1
5	13648	377.470876941468	3
5	13651	377.471015941468	1
5	13865	383.804022215932	3
5	13868	383.804161215932	1
5	14388	398.658936621858	3
5	14391	398.659075621858	1
5	14887	412.476138922907	3
5	14890	412.476277922907	1
6	0	0	1
6	344	10.928446163889	2
6	347	10.928585163889	1
6	740	21.956079867668	2
6	743	21.956218867668	1
6	1200	34.737647436559	2
6	1203	34.737786436559	1
6	1548	44.299150796141	2
6	1551	44.299289796141	1
6	1953	55.830551118124	2
6	1956	55.830690118124	1
6	2195	62.443646229803	2
6	2198	62.443785229803	1
6	2450	69.40946979681	2
6	2453	69.40960879681	1
6	2939	83.191404482349	2
6	2942	83.191543482349	1
6	3320	93.950869434047	2
6	3323	93.951008434047	1
6	3629	102.648950391449	2
6	3632	102.649089391449	1
6	4007	113.569369656034	2
6	4010	113.569508656034	1
6	4340	122.687571074348	2
6	4343	122.687710074348	1
6	4549	127.879503080621	2
6	4552	127.879642080621	1
6	4960	139.400535824243	2
6	4963	139.400674824243	1
6	5478	153.44701326685	2
6	5481	153.44715226685	1
6	5729	160.163310042117	2
6	5732	160.163449042117	1
6	5968	166.810251607094	2
6	5971	166.810390607094	1
6	6352	177.709351384547	2
6	6355	177.709490384547	1
6	6558	183.562307055109	2
6	6561	183.562446055109	1
6	6976	194.738886246924	2
6	6979	194.739025246924	1
6	7276	202.985715973192	2
6	7279	202.985854973192	1
6	7783	217.459421919194	2
6	7786	217.459560919194	1
6	8050	224.208510641475	2
6	8053	224.208649641475	1
6	8429	234.730435356033	2
6	8432	234.730574356033	1
6	8717	242.547736398411	2
6	8720	242.547875398411	1
6	9064	252.470418796876	2
6	9067	252.470557796876	1
6	9597	267.32074160129	2
6	9600	267.32088060129	1
6	10074	280.061214964373	2
6	10077	280.061353964373	1
6	10419	289.646360501649	2
6	10422	289.646499501649	1
6	10913	302.420436081013	2
6	10916	302.420575081013	1
6	11336	313.915066397751	2
6	11339	313.915205397751	1
6	11639	322.192270373928	2
6	11642	322.192409373928	1
6	12150	336.72948418651	2
6	12153	336.72962318651	1
6	12505	346.203267180829	2
6	12508	346.203406180829	1
6	12713	352.188047214879	2
6	12716	352.188186214879	1
6	13067	361.476004405415	2
6	13070	361.476143405415	1
6	13490	372.87624595687	2
6	13493	372.87638495687	1
6	13949	386.162815114951	2
6	13952	386.162954114951	1
6	14359	398.134231218139	2
6	14362	398.134370218139	1
6	14602	404.272397609895	2
6	14605	404.272536609895	1
6	15064	417.664288817907	2
6	15067	417.664427817907	1
6	15297	423.982809172014	2
6	15300	423.982948172014	1
6	15503	429.983129694594	2
6	15506	429.983268694594	1
6	15694	435.176135739313	2
6	15697	435.176274739313	1
6	16204	449.93365262868	2
6	16207	449.93379162868	1
6	16474	457.470077853651	2
6	16477	457.470216853651	1
6	17022	471.917152639945	2
6	17025	471.917291639945	1
6	17277	479.014652154875	2
6	17280	479.014791154875	1
6	17589	487.903326486704	2
6	17592	487.903465486704	1
6	18000	499.868150772528	2
6	18003	499.868289772528	1
7	0	0	1
7	10838	300.561058068392	3
7	10841	300.561197068392	1
7	11219	310.66122622057	3
7	11222	310.66136522057	1
7	11545	319.924285182198	3
7	11548	319.924424182198	1
7	11821	327.252940422553	3
7	11824	327.253079422553	1
7	12714	352.188048110244	3
7	12717	352.188187110244	1
7	13068	361.476004633129	3
7	13071	361.476143633129	1
7	13491	372.876246787516	3
7	13494	372.876385787516	1
7	16552	459.190114948323	3
7	16555	459.190253948323	1
7	16977	470.961258988707	3
7	16980	470.961397988707	1
8	0	0	1
8	397	12.151893649716	2
8	400	12.152032649716	1
8	792	23.387530613691	2
8	795	23.387669613691	1
8	1019	29.791038387921	2
8	1022	29.791177387921	1
8	1460	41.9973649038	2
8	1463	41.9975039038	1
8	1802	51.367684430443	2
8	1805	51.367823430443	1
8	2322	65.957177123055	2
8	2325	65.957316123055	1
8	2733	77.693773433566	2
8	2736	77.693912433566	1
8	3033	85.873605166562	2
8	3036	85.873744166562	1
8	3298	93.65079080686	2
8	3301	93.65092980686	1
8	3499	98.851866312325	2
8	3502	98.852005312325	1
8	3829	108.184746950865	2
8	3832	108.184885950865	1
8	4243	120.17953972565	2
8	4246	120.17967872565	1
8	4640	130.511602242477	2
8	4643	130.511741242477	1
8	4929	138.721574679948	2
8	4932	138.721713679948	1
8	5172	145.216057726647	2
8	5175	145.216196726647	1
8	5398	151.615783558226	2
8	5401	151.615922558226	1
8	5608	156.732924373354	2
8	5611	156.733063373354	1
8	6125	171.174121883231	2
8	6128	171.174260883231	1
8	6497	181.869857201817	2
8	6500	181.869996201817	1
8	6822	190.647375574334	2
8	6825	190.647514574334	1
8	7094	197.816345384343	2
8	7097	197.816484384343	1
8	7340	204.672704816329	2
8	7343	204.672843816329	1
8	7826	218.475680861155	2
8	7829	218.475819861155	1
8	8172	227.436277898958	2
8	8175	227.436416898958	1
8	8460	235.357753206043	2
8	8463	235.357892206043	1
8	8695	242.174065262078	2
8	8698	242.174204262078	1
8	9219	256.667253479826	2
8	9222	256.667392479826	1
8	9536	265.772174894809	2
8	9539	265.772313894809	1
8	10016	278.660902634728	2
8	10019	278.661041634728	1
8	10225	284.21464580344	2
8	10228	284.21478480344	1
8	10477	291.026155431755	2
8	10480	291.026294431755	1
8	10695	296.724745605607	2
8	10698	296.724884605607	1
8	11073	306.608846222517	2
8	11076	306.608985222517	1
8	11572	320.429260372185	2
8	11575	320.429399372185	1
8	11917	330.010648621247	2
8	11920	330.010787621247	1
8	12113	335.860659317114	2
8	12116	335.860798317114	1
8	12443	345.100981835276	2
8	12446	345.101120835276	1
8	12945	358.554558679462	2
8	12948	358.554697679462	1
8	13278	367.297790630255	2
8	13281	367.297929630255	1
8	13647	377.470875761937	2
8	13650	377.471014761937	1
8	13971	386.446210744325	2
8	13974	386.446349744325	1
8	14466	400.495694165584	2
8	14469	400.495833165584	1
8	14870	412.296849552077	2
8	14873	412.296988552077	1
8	15230	422.493277809118	2
8	15233	422.493416809118	1
8	15528	430.421218120028	2
8	15531	430.421357120028	1
8	15897	440.890067087021	2
8	15900	440.890206087021	1
8	16317	452.976155502256	2
8	16320	452.976294502256	1
8	16535	459.022434356157	2
8	16538	459.022573356157	1
8	16795	466.071671177633	2
8	16798	466.071810177633	1
8	17116	474.79846192291	2
8	17119	474.79860092291	1
8	17533	486.707399196457	2
8	17536	486.707538196457	1
8	17728	491.876115952618	2
8	17731	491.876254952618	1
9	318	10.488135023043	389
9	822	23.930792463944	389
9	1344	38.716975892895	389
9	1668	47.58186567342	389
9	1977	56.218973407523	389
9	2367	67.037476729603	389
9	2886	81.802071381827	389
9	3395	95.969300947619	389
9	3671	103.669380634093	389
9	4067	115.058591435665	389
9	4460	125.871320194566	389
9	4975	139.655842105859	389
9	5464	153.337102711667	389
9	5924	165.837095188909	389
9	6335	177.628001370468	389
9	6612	184.902147662361	389
9	6793	190.148934950122	389
9	7238	202.295904278291	389
9	7583	211.857202001849	389
9	7910	220.598901787309	389
9	8143	226.847232396251	389
9	8394	233.938802676278	389
9	8933	248.782097015067	389
9	9118	253.914465582932	389
9	9459	263.698168648409	389
9	9996	278.427363550293	389
9	10288	285.988759379836	389
9	10516	291.852529186292	389
9	10836	300.561057187153	389
9	11217	310.661225719379	389
9	11543	319.92428449914	389
9	11819	327.252939245665	389
9	12276	340.40817749221	389
9	12473	345.741223755759	389
9	13011	360.034137889744	389
9	13428	371.421755435878	389
9	13863	383.80402124487	389
9	14386	398.658935548739	389
9	14885	412.476137690247	389
9	15396	426.878234625329	389
9	15886	440.832093472128	389
9	16240	450.890757315793	389
9	16550	459.190113849473	389
9	16975	470.961257850286	389
9	17173	476.046373732388	389
9	17572	487.765945114661	389
9	17977	499.438793514855	389
10	318	10.488135023043	389
10	822	23.930792463944	389
10	1344	38.716975892895	389
10	1668	47.58186567342	389
10	1977	56.218973407523	389
10	2367	67.037476729603	389
10	2886	81.802071381827	389
10	3395	95.969300947619	389
10	3671	103.669380634093	389
10	4067	115.058591435665	389
10	4460	125.871320194566	389
10	4975	139.655842105859	389
10	5464	153.337102711667	389
10	5924	165.837095188909	389
10	6335	177.628001370468	389
10	6612	184.902147662361	389
10	6793	190.148934950122	389
10	7238	202.295904278291	389
10	7583	211.857202001849	389
10	7910	220.598901787309	389
10	8143	226.847232396251	389
10	8394	233.938802676278	389
10	8933	248.782097015067	389
10	9118	253.914465582932	389
10	9459	263.698168648409	389
10	9996	278.427363550293	389
10	10288	285.988759379836	389
10	10516	291.852529186292	389
10	10836	300.561057187153	389
10	11217	310.661225719379	389
10	11543	319.92428449914	389
10	11819	327.252939245665	389
10	12276	340.40817749221	389
10	12473	345.741223755759	389
10	13011	360.034137889744	389
10	13428	371.421755435878	389
10	13863	383.80402124487	389
10	14386	398.658935548739	389
10	14885	412.476137690247	389
10	15396	426.878234625329	389
10	15886	440.832093472128	389
10	16240	450.890757315793	389
10	16550	459.190113849473	389
10	16975	470.961257850286	389
10	17173	476.046373732388	389
10	17572	487.765945114661	389
10	17977	499.438793514855	389
11	318	10.488135023043	1
11	318	10.488135023043	0
11	822	23.930792463944	1
11	822	23.930792463944	0
11	1344	38.716975892895	1
11	1344	38.716975892895	0
11	1668	47.58186567342	1
11	1668	47.58186567342	0
11	1977	56.218973407523	1
11	1977	56.218973407523	0
11	2367	67.037476729603	1
11	2367	67.037476729603	0
11	2886	81.802071381827	1
11	2886	81.802071381827	0
11	3395	95.969300947619	1
11	3395	95.969300947619	0
11	3671	103.669380634093	1
11	3671	103.669380634093	0
11	4067	115.058591435665	1
11	4067	115.058591435665	0
11	4460	125.871320194566	1
11	4460	125.871320194566	0
11	4975	139.655842105859	1
11	4975	139.655842105859	0
11	5464	153.337102711667	1
11	5464	153.337102711667	0
11	5924	165.837095188909	1
11	5924	165.837095188909	0
11	6335	177.628001370468	1
11	6335	177.628001370468	0
11	6612	184.902147662361	1
11	6612	184.902147662361	0
11	6793	190.148934950122	1
11	6793	190.148934950122	0
11	7238	202.295904278291	1
11	7238	202.295904278291	0
11	7583	211.857202001849	1
11	7583	211.857202001849	0
11	7910	220.598901787309	1
11	7910	220.598901787309	0
11	8143	226.847232396251	1
11	8143	226.847232396251	0
11	8394	233.938802676278	1
11	8394	233.938802676278	0
11	8933	248.782097015067	1
11	8933	248.782097015067	0
11	9118	253.914465582932	1
11	9118	253.914465582932	0
11	9459	263.698168648409	1
11	9459	263.698168648409	0
11	9996	278.427363550293	1
11	9996	278.427363550293	0
11	10288	285.988759379836	1
11	10288	285.988759379836	0
11	10516	291.852529186292	1
11	10516	291.852529186292	0
11	10836	300.561057187153	1
11	10836	300.561057187153	0
11	11217	310.661225719379	1
11	11217	310.661225719379	0
11	11543	319.92428449914	1
11	11543	319.92428449914	0
11	11819	327.252939245665	1
11	11819	327.252939245665	0
11	12276	340.40817749221	1
11	12276	340.40817749221	0
11	12473	345.741223755759	1
11	12473	345.741223755759	0
11	13011	360.034137889744	1
11	13011	360.034137889744	0
11	13428	371.421755435878	1
11	13428	371.421755435878	0
11	13863	383.80402124487	1
11	13863	383.80402124487	0
11	14386	398.658935548739	1
11	14386	398.658935548739	0
11	14885	412.476137690247	1
11	14885	412.476137690247	0
11	15396	426.878234625329	1
11	15396	426.878234625329	0
11	15886	440.832093472128	1
11	15886	440.832093472128	0
11	16240	450.890757315793	1
11	16240	450.890757315793	0
11	16550	459.190113849473	1
11	16550	459.190113849473	0
11	16975	470.961257850286	1
11	16975	470.961257850286	0
11	17173	476.046373732388	1
11	17173	476.046373732388	0
11	17572	487.765945114661	1
11	17572	487.765945114661	0
11	17977	499.438793514855	1
11	17977	499.438793514855	0
12	318	10.488135023043	389
12	822	23.930792463944	389
12	1344	38.716975892895	389
12	1668	47.58186567342	389
12	1977	56.218973407523	389
12	2367	67.037476729603	389
12	2886	81.802071381827	389
12	3395	95.969300947619	389
12	3671	103.669380634093	389
12	4067	115.058591435665	389
12	4460	125.871320194566	389
12	4975	139.655842105859	389
12	5464	153.337102711667	389
12	5924	165.837095188909	389
12	6335	177.628001370468	389
12	6612	184.902147662361	389
12	6793	190.148934950122	389
12	7238	202.295904278291	389
12	7583	211.857202001849	389
12	7910	220.598901787309	389
12	8143	226.847232396251	389
12	8394	233.938802676278	389
12	8933	248.782097015067	389
12	9118	253.914465582932	389
12	9459	263.698168648409	389
12	9996	278.427363550293	389
12	10288	285.988759379836	389
12	10516	291.852529186292	389
12	10836	300.561057187153	389
12	11217	310.661225719379	389
12	11543	319.92428449914	389
12	11819	327.252939245665	389
12	12276	340.40817749221	389
12	12473	345.741223755759	389
12	13011	360.034137889744	389
12	13428	371.421755435878	389
12	13863	383.80402124487	389
12	14386	398.658935548739	389
12	14885	412.476137690247	389
12	15396	426.878234625329	389
12	15886	440.832093472128	389
12	16240	450.890757315793	389
12	16550	459.190113849473	389
12	16975	470.961257850286	389
12	17173	476.046373732388	389
12	17572	487.765945114661	389
12	17977	499.438793514855	389
13	318	10.488135023043	0
13	822	23.930792463944	0
13	1344	38.716975892895	0
13	1668	47.58186567342	0
13	1977	56.218973407523	0
13	2367	67.037476729603	0
13	2886	81.802071381827	0
13	3395	95.969300947619	0
13	3671	103.669380634093	0
13	4067	115.058591435665	0
13	4460	125.871320194566	0
13	4975	139.655842105859	0
13	5464	153.337102711667	0
13	5924	165.837095188909	0
13	6335	177.628001370468	0
13	6612	184.902147662361	0
13	6793	190.148934950122	0
13	7238	202.295904278291	0
13	7583	211.857202001849	0
13	7910	220.598901787309	0
13	8143	226.847232396251	0
13	8394	233.938802676278	0
13	8933	248.782097015067	0
13	9118	253.914465582932	0
13	9459	263.698168648409	0
13	9996	278.427363550293	0
13	10288	285.988759379836	0
13	10516	291.852529186292	0
13	10836	300.561057187153	0
13	11217	310.661225719379	0
13	11543	319.92428449914	0
13	11819	327.252939245665	0
13	12276	340.40817749221	0
13	12473	345.741223755759	0
13	13011	360.034137889744	0
13	13428	371.421755435878	0
13	13863	383.80402124487	0
13	14386	398.658935548739	0
13	14885	412.476137690247	0
13	15396	426.878234625329	0
13	15886	440.832093472128	0
13	16240	450.890757315793	0
13	16550	459.190113849473	0
13	16975	470.961257850286	0
13	17173	476.046373732388	0
13	17572	487.765945114661	0
13	17977	499.438793514855	0
14	318	10.488135023043	405
14	822	23.930792463944	405
14	1344	38.716975892895	405
14	1668	47.58186567342	405
14	1977	56.218973407523	405
14	2367	67.037476729603	405
14	2886	81.802071381827	405
14	3395	95.969300947619	405
14	3671	103.669380634093	405
14	4067	115.058591435665	405
14	4460	125.871320194566	405
14	4975	139.655842105859	405
14	5464	153.337102711667	405
14	5924	165.837095188909	405
14	6335	177.628001370468	405
14	6612	184.902147662361	405
14	6793	190.148934950122	405
14	7238	202.295904278291	405
14	7583	211.857202001849	405
14	7910	220.598901787309	405
14	8143	226.847232396251	405
14	8394	233.938802676278	405
14	8933	248.782097015067	405
14	9118	253.914465582932	405
14	9459	263.698168648409	405
14	9996	278.427363550293	405
14	10288	285.988759379836	405
14	10516	291.852529186292	405
14	10836	300.561057187153	405
14	11217	310.661225719379	405
14	11543	319.92428449914	405
14	11819	327.252939245665	405
14	12276	340.40817749221	405
14	12473	345.741223755759	405
14	13011	360.034137889744	405
14	13428	371.421755435878	405
14	13863	383.80402124487	405
14	14386	398.658935548739	405
14	14885	412.476137690247	405
14	15396	426.878234625329	405
14	15886	440.832093472128	405
14	16240	450.890757315793	405
14	16550	459.190113849473	405
14	16975	470.961257850286	405
14	17173	476.046373732388	405
14	17572	487.765945114661	405
14	17977	499.438793514855	405
15	343	10.928446163889	389
15	739	21.956079867668	389
15	1199	34.737647436559	389
15	1547	44.299150796141	389
15	1952	55.830551118124	389
15	2194	62.443646229803	389
15	2449	69.40946979681	389
15	2938	83.191404482349	389
15	3319	93.950869434047	389
15	3628	102.648950391449	389
15	4006	113.569369656034	389
15	4339	122.687571074348	389
15	4548	127.879503080621	389
15	4959	139.400535824243	389
15	5477	153.44701326685	389
15	5728	160.163310042117	389
15	5967	166.810251607094	389
15	6351	177.709351384547	389
15	6557	183.562307055109	389
15	6975	194.738886246924	389
15	7275	202.985715973192	389
15	7782	217.459421919194	389
15	8049	224.208510641475	389
15	8428	234.730435356033	389
15	8716	242.547736398411	389
15	9063	252.470418796876	389
15	9596	267.32074160129	389
15	10073	280.061214964373	389
15	10418	289.646360501649	389
15	10912	302.420436081013	389
15	11335	313.915066397751	389
15	11638	322.192270373928	389
15	12149	336.72948418651	389
15	12504	346.203267180829	389
15	12712	352.188047214879	389
15	13066	361.476004405415	389
15	13489	372.87624595687	389
15	13948	386.162815114951	389
15	14358	398.134231218139	389
15	14601	404.272397609895	389
15	15063	417.664288817907	389
15	15296	423.982809172014	389
15	15502	429.983129694594	389
15	15693	435.176135739313	389
15	16203	449.93365262868	389
15	16473	457.470077853651	389
15	17021	471.917152639945	389
15	17276	479.014652154875	389
15	17588	487.903326486704	389
15	17999	499.868150772528	389
16	343	10.928446163889	389
16	739	21.956079867668	389
16	1199	34.737647436559	389
16	1547	44.299150796141	389
16	1952	55.830551118124	389
16	2194	62.443646229803	389
16	2449	69.40946979681	389
16	2938	83.191404482349	389
16	3319	93.950869434047	389
16	3628	102.648950391449	389
16	4006	113.569369656034	389
16	4339	122.687571074348	389
16	4548	127.879503080621	389
16	4959	139.400535824243	389
16	5477	153.44701326685	389
16	5728	160.163310042117	389
16	5967	166.810251607094	389
16	6351	177.709351384547	389
16	6557	183.562307055109	389
16	6975	194.738886246924	389
16	7275	202.985715973192	389
16	7782	217.459421919194	389
16	8049	224.208510641475	389
16	8428	234.730435356033	389
16	8716	242.547736398411	389
16	9063	252.470418796876	389
16	9596	267.32074160129	389
16	10073	280.061214964373	389
16	10418	289.646360501649	389
16	10912	302.420436081013	389
16	11335	313.915066397751	389
16	11638	322.192270373928	389
16	12149	336.72948418651	389
16	12504	346.203267180829	389
16	12712	352.188047214879	389
16	13066	361.476004405415	389
16	13489	372.87624595687	389
16	13948	386.162815114951	389
16	14358	398.134231218139	389
16	14601	404.272397609895	389
16	15063	417.664288817907	389
16	15296	423.982809172014	389
16	15502	429.983129694594	389
16	15693	435.176135739313	389
16	16203	449.93365262868	389
16	16473	457.470077853651	389
16	17021	471.917152639945	389
16	17276	479.014652154875	389
16	17588	487.903326486704	389
16	17999	499.868150772528	389
17	343	10.928446163889	1
17	343	10.928446163889	0
17	739	21.956079867668	1
17	739	21.956079867668	0
17	1199	34.737647436559	1
17	1199	34.737647436559	0
17	1547	44.299150796141	1
17	1547	44.299150796141	0
17	1952	55.830551118124	1
17	1952	55.830551118124	0
17	2194	62.443646229803	1
17	2194	62.443646229803	0
17	2449	69.40946979681	1
17	2449	69.40946979681	0
17	2938	83.191404482349	1
17	2938	83.191404482349	0
17	3319	93.950869434047	1
17	3319	93.950869434047	0
17	3628	102.648950391449	1
17	3628	102.648950391449	0
17	4006	113.569369656034	1
17	4006	113.569369656034	0
17	4339	122.687571074348	1
17	4339	122.687571074348	0
17	4548	127.879503080621	1
17	4548	127.879503080621	0
17	4959	139.400535824243	1
17	4959	139.400535824243	0
17	5477	153.44701326685	1
17	5477	153.44701326685	0
17	5728	160.163310042117	1
17	5728	160.163310042117	0
17	5967	166.810251607094	1
17	5967	166.810251607094	0
17	6351	177.709351384547	1
17	6351	177.709351384547	0
17	6557	183.562307055109	1
17	6557	183.562307055109	0
17	6975	194.738886246924	1
17	6975	194.738886246924	0
17	7275	202.985715973192	1
17	7275	202.985715973192	0
17	7782	217.459421919194	1
17	7782	217.459421919194	0
17	8049	224.208510641475	1
17	8049	224.208510641475	0
17	8428	234.730435356033	1
17	8428	234.730435356033	0
17	8716	242.547736398411	1
17	8716	242.547736398411	0
17	9063	252.470418796876	1
17	9063	252.470418796876	0
17	9596	267.32074160129	1
17	9596	267.32074160129	0
17	10073	280.061214964373	1
17	10073	280.061214964373	0
17	10418	289.646360501649	1
17	10418	289.646360501649	0
17	10912	302.420436081013	1
17	10912	302.420436081013	0
17	11335	313.915066397751	1
17	11335	313.915066397751	0
17	11638	322.192270373928	1
17	11638	322.192270373928	0
17	12149	336.72948418651	1
17	12149	336.72948418651	0
17	12504	346.203267180829	1
17	12504	346.203267180829	0
17	12712	352.188047214879	1
17	12712	352.188047214879	0
17	13066	361.476004405415	1
17	13066	361.476004405415	0
17	13489	372.87624595687	1
17	13489	372.87624595687	0
17	13948	386.162815114951	1
17	13948	386.162815114951	0
17	14358	398.134231218139	1
17	14358	398.134231218139	0
17	14601	404.272397609895	1
17	14601	404.272397609895	0
17	15063	417.664288817907	1
17	15063	417.664288817907	0
17	15296	423.982809172014	1
17	15296	423.982809172014	0
17	15502	429.983129694594	1
17	15502	429.983129694594	0
17	15693	435.176135739313	1
17	15693	435.176135739313	0
17	16203	449.93365262868	1
17	16203	449.93365262868	0
17	16473	457.470077853651	1
17	16473	457.470077853651	0
17	17021	471.917152639945	1
17	17021	471.917152639945	0
17	17276	479.014652154875	1
17	17276	479.014652154875	0
17	17588	487.903326486704	1
17	17588	487.903326486704	0
17	17999	499.868150772528	1
17	17999	499.868150772528	0
18	343	10.928446163889	389
18	739	21.956079867668	389
18	1199	34.737647436559	389
18	1547	44.299150796141	389
18	1952	55.830551118124	389
18	2194	62.443646229803	389
18	2449	69.40946979681	389
18	2938	83.191404482349	389
18	3319	93.950869434047	389
18	3628	102.648950391449	389
18	4006	113.569369656034	389
18	4339	122.687571074348	389
18	4548	127.879503080621	389
18	4959	139.400535824243	389
18	5477	153.44701326685	389
18	5728	160.163310042117	389
18	5967	166.810251607094	389
18	6351	177.709351384547	389
18	6557	183.562307055109	389
18	6975	194.738886246924	389
18	7275	202.985715973192	389
18	7782	217.459421919194	389
18	8049	224.208510641475	389
18	8428	234.730435356033	389
18	8716	242.547736398411	389
18	9063	252.470418796876	389
18	9596	267.32074160129	389
18	10073	280.061214964373	389
18	10418	289.646360501649	389
18	10912	302.420436081013	389
18	11335	313.915066397751	389
18	11638	322.192270373928	389
18	12149	336.72948418651	389
18	12504	346.203267180829	389
18	12712	352.188047214879	389
18	13066	361.476004405415	389
18	13489	372.87624595687	389
18	13948	386.162815114951	389
18	14358	398.134231218139	389
18	14601	404.272397609895	389
18	15063	417.664288817907	389
18	15296	423.982809172014	389
18	15502	429.983129694594	389
18	15693	435.176135739313	389
18	16203	449.93365262868	389
18	16473	457.470077853651	389
18	17021	471.917152639945	389
18	17276	479.014652154875	389
18	17588	487.903326486704	389
18	17999	499.868150772528	389
19	343	10.928446163889	0
19	739	21.956079867668	0
19	1199	34.737647436559	0
19	1547	44.299150796141	0
19	1952	55.830551118124	0
19	2194	62.443646229803	0
19	2449	69.40946979681	0
19	2938	83.191404482349	0
19	3319	93.950869434047	0
19	3628	102.648950391449	0
19	4006	113.569369656034	0
19	4339	122.687571074348	0
19	4548	127.879503080621	0
19	4959	139.400535824243	0
19	5477	153.44701326685	0
19	5728	160.163310042117	0
19	5967	166.810251607094	0
19	6351	177.709351384547	0
19	6557	183.562307055109	0
19	6975	194.738886246924	0
19	7275	202.985715973192	0
19	7782	217.459421919194	0
19	8049	224.208510641475	0
19	8428	234.730435356033	0
19	8716	242.547736398411	0
19	9063	252.470418796876	0
19	9596	267.32074160129	0
19	10073	280.061214964373	0
19	10418	289.646360501649	0
19	10912	302.420436081013	0
19	11335	313.915066397751	0
19	11638	322.192270373928	0
19	12149	336.72948418651	0
19	12504	346.203267180829	0
19	12712	352.188047214879	0
19	13066	361.476004405415	0
19	13489	372.87624595687	0
19	13948	386.162815114951	0
19	14358	398.134231218139	0
19	14601	404.272397609895	0
19	15063	417.664288817907	0
19	15296	423.982809172014	0
19	15502	429.983129694594	0
19	15693	435.176135739313	0
19	16203	449.93365262868	0
19	16473	457.470077853651	0
19	17021	471.917152639945	0
19	17276	479.014652154875	0
19	17588	487.903326486704	0
19	17999	499.868150772528	0
20	343	10.928446163889	405
20	739	21.956079867668	405
20	1199	34.737647436559	405
20	1547	44.299150796141	405
20	1952	55.830551118124	405
20	2194	62.443646229803	405
20	2449	69.40946979681	405
20	2938	83.191404482349	405
20	3319	93.950869434047	405
20	3628	102.648950391449	405
20	4006	113.569369656034	405
20	4339	122.687571074348	405
20	4548	127.879503080621	405
20	4959	139.400535824243	405
20	5477	153.44701326685	405
20	5728	160.163310042117	405
20	5967	166.810251607094	405
20	6351	177.709351384547	405
20	6557	183.562307055109	405
20	6975	194.738886246924	405
20	7275	202.985715973192	405
20	7782	217.459421919194	405
20	8049	224.208510641475	405
20	8428	234.730435356033	405
20	8716	242.547736398411	405
20	9063	252.470418796876	405
20	9596	267.32074160129	405
20	10073	280.061214964373	405
20	10418	289.646360501649	405
20	10912	302.420436081013	405
20	11335	313.915066397751	405
20	11638	322.192270373928	405
20	12149	336.72948418651	405
20	12504	346.203267180829	405
20	12712	352.188047214879	405
20	13066	361.476004405415	405
20	13489	372.87624595687	405
20	13948	386.162815114951	405
20	14358	398.134231218139	405
20	14601	404.272397609895	405
20	15063	417.664288817907	405
20	15296	423.982809172014	405
20	15502	429.983129694594	405
20	15693	435.176135739313	405
20	16203	449.93365262868	405
20	16473	457.470077853651	405
20	17021	471.917152639945	405
20	17276	479.014652154875	405
20	17588	487.903326486704	405
20	17999	499.868150772528	405
21	351	11	1000
21	379	11.787201139982	1000
21	410	12.338249626652	1000
21	428	12.823377790374	1000
21	440	13.176536929512	1000
21	446	13.234921598605	1000
21	458	13.553277739447	1000
21	482	14.202724087698	1000
21	533	15.874935288023	1000
21	557	16.528817855244	1000
21	575	17.02768986426	1000
21	632	18.836059128535	1000
21	647	19.247637124778	1000
21	680	20.292249633086	1000
21	698	20.751497770341	1000
21	817	23.901667699017	1000
21	890	25.942559914929	1000
21	941	27.547799471991	1000
21	962	28.166728931618	1000
21	1010	29.683264905608	1000
21	1029	29.809139315046	1000
21	1056	30.681460510088	1000
21	1083	31.452295168555	1000
21	1128	32.873659848649	1000
21	1134	32.985606009282	1000
21	1158	33.627300711313	1000
21	1167	33.833503993343	1000
21	1219	35.168794177967	1000
21	1249	36.009128883579	1000
21	1252	36.02809745278	1000
21	1282	36.989478391846	1000
21	1315	37.936475069021	1000
21	1355	38.896023046389	1000
21	1430	41.224936420603	1000
21	1451	41.822682497421	1000
21	1491	42.772177080918	1000
21	1530	43.968284880375	1000
21	1536	44.030400170841	1000
21	1582	45.129312638392	1000
21	1591	45.31673870441	1000
21	1606	45.760142733031	1000
21	1651	47.149185422822	1000
21	1691	48.085246982593	1000
21	1721	48.929674776121	1000
21	1742	49.506999086928	1000
21	1887	53.961495933104	1000
21	1923	55.019322346456	1000
21	1966	56.027341591876	1000
21	2009	57.08608430697	1000
21	2030	57.621148984053	1000
21	2051	58.264929985656	1000
21	2084	59.241794059727	1000
21	2099	59.654295289649	1000
21	2135	60.777463591182	1000
21	2150	61.159019434556	1000
21	2208	62.665654767829	1000
21	2226	63.125668725569	1000
21	2280	64.846000383286	1000
21	2286	64.948145264811	1000
21	2353	66.767964184095	1000
21	2484	70.341552556439	1000
21	2508	71.054136149772	1000
21	2514	71.111463076196	1000
21	2535	71.711409962837	1000
21	2538	71.731600090983	1000
21	2559	72.31447847985	1000
21	2679	76.206048602695	1000
21	2694	76.651468064615	1000
21	2718	77.307114348979	1000
21	2764	78.473987875528	1000
21	2785	79.008872251285	1000
21	2788	79.075169652767	1000
21	2827	80.254359179832	1000
21	2854	81.090456711802	1000
21	2866	81.3988715519	1000
21	2903	82.139630502347	1000
21	2991	84.679935010306	1000
21	3085	87.329190938982	1000
21	3088	87.338591689646	1000
21	3145	89.185919340648	1000
21	3181	90.227699994827	1000
21	3238	92.068982466314	1000
21	3250	92.376500190076	1000
21	3268	92.883700313333	1000
21	3305	93.688497713134	1000
21	3372	95.454238785547	1000
21	3381	95.612580291778	1000
21	3418	96.455663323926	1000
21	3460	97.784421197676	1000
21	3572	101.059564375391	1000
21	3617	102.470588784685	1000
21	3645	102.974932591273	1000
21	3685	103.824153402837	1000
21	3754	106.045660301311	1000
21	3790	107.185268264844	1000
21	3811	107.781647659174	1000
21	3941	111.624654242418	1000
21	3953	111.977674375692	1000
21	4017	113.658596580238	1000
21	4053	114.783878597082	1000
21	4075	115.071289073152	1000
21	4144	117.206119523135	1000
21	4180	118.38550245678	1000
21	4222	119.677411725581	1000
21	4256	120.373211186481	1000
21	4268	120.635268428156	1000
21	4286	121.137579226417	1000
21	4319	122.102032791911	1000
21	4350	122.746137500234	1000
21	4365	123.105064716104	1000
21	4398	124.18438491476	1000
21	4413	124.526984539458	1000
21	4443	125.489359595229	1000
21	4474	126.049320665303	1000
21	4480	126.157867763798	1000
21	4486	126.254790518375	1000
21	4501	126.691818532149	1000
21	4528	127.494370517908	1000
21	4534	127.528573936266	1000
21	4662	131.001109415548	1000
21	4671	131.251190910526	1000
21	4680	131.40348453578	1000
21	4686	131.505805150633	1000
21	4812	135.643614911143	1000
21	4824	135.945180824366	1000
21	4851	136.715257683912	1000
21	4872	137.309331182236	1000
21	4878	137.414213017836	1000
21	4893	137.84855867378	1000
21	4914	138.482021291503	1000
21	5004	140.32175407658	1000
21	5010	140.499079651725	1000
21	5043	141.455046075647	1000
21	5049	141.587229785262	1000
21	5109	143.471158671848	1000
21	5163	145.117877773175	1000
21	5200	145.959758734907	1000
21	5203	145.993545520459	1000
21	5329	150.043392359264	1000
21	5347	150.510664925674	1000
21	5365	151.055522053819	1000
21	5371	151.107434606002	1000
21	5386	151.562346450794	1000
21	5389	151.579114216786	1000
21	5411	151.841443525952	1000
21	5426	152.287696346471	1000
21	5488	153.596994710494	1000
21	5515	154.333125810481	1000
21	5518	154.38899586337	1000
21	5530	154.612135071471	1000
21	5533	154.630830541892	1000
21	5584	156.209243263998	1000
21	5593	156.462748969141	1000
21	5618	156.886406070498	1000
21	5651	157.823544788221	1000
21	5681	158.731508815546	1000
21	5739	160.262340041813	1000
21	5772	161.233822199908	1000
21	5799	162.094745836589	1000
21	5811	162.366413906931	1000
21	5895	165.087762162844	1000
21	5938	166.039591870386	1000
21	6011	168.036763837876	1000
21	6053	169.346549209238	1000
21	6068	169.720435705141	1000
21	6086	170.228300827828	1000
21	6095	170.463825401247	1000
21	6104	170.66985744973	1000
21	6204	173.558933041629	1000
21	6225	174.160612028153	1000
21	6343	177.67509070869	1000
21	6365	177.968598360613	1000
21	6371	178.026670722729	1000
21	6392	178.695784446419	1000
21	6461	180.82445454095	1000
21	6595	184.571149154775	1000
21	6632	185.353124875651	1000
21	6638	185.422742546725	1000
21	6674	186.560281052266	1000
21	6695	187.164862270601	1000
21	6722	187.933982071697	1000
21	6804	190.203822087481	1000
21	6835	190.837752106875	1000
21	6871	191.925656540489	1000
21	6883	192.231261442303	1000
21	6886	192.252128660913	1000
21	6931	193.672512116498	1000
21	6946	194.058199810543	1000
21	6964	194.541838198033	1000
21	7004	195.429340126517	1000
21	7028	196.162707799685	1000
21	7031	196.16276315158	1000
21	7046	196.536526445397	1000
21	7064	197.090697274445	1000
21	7143	199.25646095532	1000
21	7249	202.309645624913	1000
21	7270	202.970148704662	1000
21	7331	204.524811642471	1000
21	7383	205.837319635437	1000
21	7398	206.213748986958	1000
21	7494	209.370844528374	1000
21	7518	210.009033133967	1000
21	7557	211.252383911916	1000
21	7566	211.419258553149	1000
21	7618	212.730230921309	1000
21	7639	213.353060231074	1000
21	7651	213.67827624905	1000
21	7681	214.562061905083	1000
21	7744	216.55610110636	1000
21	7750	216.681133696283	1000
21	7777	217.409657539017	1000
21	7793	217.551299573812	1000
21	7842	218.770298918993	1000
21	7872	219.603677159639	1000
21	7881	219.806135923337	1000
21	7887	219.962611693721	1000
21	7921	220.632152284582	1000
21	7963	221.912576638561	1000
21	7966	221.943502930122	1000
21	8011	223.317845944542	1000
21	8017	223.415013622909	1000
21	8026	223.660211715551	1000
21	8081	225.043528181702	1000
21	8111	225.92174326042	1000
21	8230	229.190239661243	1000
21	8242	229.465767598281	1000
21	8248	229.571454772386	1000
21	8251	229.588020866808	1000
21	8335	232.240579382328	1000
21	8371	233.348989136542	1000
21	8439	234.886817851019	1000
21	8479	235.769698395976	1000
21	8503	236.487944876084	1000
21	8533	237.35651060755	1000
21	8584	238.905522286705	1000
21	8614	239.838134141974	1000
21	8623	240.084549964187	1000
21	8644	240.691829252806	1000
21	8733	242.802718027189	1000
21	8772	244.05995502276	1000
21	8796	244.725797509397	1000
21	8835	245.958677972428	1000
21	8859	246.648112510276	1000
21	8919	248.509544153258	1000
21	8928	248.725640369852	1000
21	8986	250.209882852502	1000
21	9001	250.636418664538	1000
21	9007	250.796752759025	1000
21	9153	254.804702413899	1000
21	9174	255.49264589236	1000
21	9210	256.512832980315	1000
21	9235	256.972624298091	1000
21	9256	257.531631968082	1000
21	9268	257.885228543345	1000
21	9286	258.397943185975	1000
21	9295	258.526523423251	1000
21	9415	262.47415669081	1000
21	9433	262.995235511895	1000
21	9473	263.837371814732	1000
21	9582	267.077334781633	1000
21	9613	267.607296360905	1000
21	9628	268.012479243247	1000
21	9631	268.097058735009	1000
21	9652	268.620026388665	1000
21	9661	268.884296852801	1000
21	9670	269.026422364194	1000
21	9673	269.081329736745	1000
21	9715	270.374477595541	1000
21	9718	270.38597084575	1000
21	9766	271.858175003744	1000
21	9775	272.0171081834	1000
21	9778	272.099970456319	1000
21	9784	272.193845003602	1000
21	9823	273.308732425509	1000
21	9832	273.59025644798	1000
21	9853	274.135914162747	1000
21	9880	274.950932493643	1000
21	9943	276.920990059235	1000
21	9985	278.21943569484	1000
21	10007	278.534595723556	1000
21	10047	279.430924928577	1000
21	10059	279.789886246954	1000
21	10081	280.093857806183	1000
21	10108	280.837440997959	1000
21	10129	281.420864768994	1000
21	10189	283.335707026637	1000
21	10210	283.903877510379	1000
21	10274	285.657592155403	1000
21	10335	287.211337657435	1000
21	10368	288.290264565935	1000
21	10380	288.52168553789	1000
21	10450	290.4008039721	1000
21	10462	290.701129052386	1000
21	10487	291.169235505621	1000
21	10490	291.178970914962	1000
21	10572	293.405054904404	1000
21	10581	293.624523065298	1000
21	10602	294.240442349082	1000
21	10605	294.286080398578	1000
21	10656	295.894498247664	1000
21	10662	295.974577103608	1000
21	10689	296.706122442741	1000
21	10714	297.072573734574	1000
21	10735	297.607978085667	1000
21	10741	297.799274131565	1000
21	10765	298.444182622731	1000
21	10813	299.975031041674	1000
21	10853	300.78792940286	1000
21	10880	301.556182744727	1000
21	10926	302.699978123846	1000
21	10953	303.47482050335	1000
21	10968	303.868878075297	1000
21	10977	304.027890092096	1000
21	10986	304.202088808679	1000
21	10992	304.340675630102	1000
21	11022	305.205613739531	1000
21	11028	305.302411211839	1000
21	11116	307.716427642347	1000
21	11137	308.330031852088	1000
21	11179	309.617993827164	1000
21	11197	310.12719631403	1000
21	11282	312.471065954829	1000
21	11306	313.112039500093	1000
21	11343	313.980009482111	1000
21	11388	315.39379281165	1000
21	11424	316.404561974749	1000
21	11433	316.679025496753	1000
21	11442	316.854020544971	1000
21	11493	318.445576667764	1000
21	11618	321.643831644534	1000
21	11658	322.537833047214	1000
21	11685	323.353851611179	1000
21	11691	323.456403504183	1000
21	11724	324.428414395245	1000
21	11787	326.416353850089	1000
21	11793	326.587892477462	1000
21	11966	331.471391467807	1000
21	11972	331.570612994291	1000
21	12005	332.574664168169	1000
21	12098	335.556443825495	1000
21	12205	338.317048281178	1000
21	12247	339.617885708638	1000
21	12299	340.973604222488	1000
21	12398	344.16736609517	1000
21	12416	344.606443080758	1000
21	12431	345.047597891488	1000
21	12434	345.064061175473	1000
21	12453	345.26891344262	1000
21	12490	346.037376020011	1000
21	12496	346.142308767339	1000
21	12596	349.048228370995	1000
21	12602	349.144769650023	1000
21	12608	349.20236256684	1000
21	12611	349.292870036988	1000
21	12623	349.563594427725	1000
21	12680	351.393136583584	1000
21	12707	352.132056603523	1000
21	12744	352.851701501212	1000
21	12750	352.922203449573	1000
21	12762	353.212476864696	1000
21	12771	353.462427681346	1000
21	12783	353.754373753075	1000
21	12789	353.89484947003	1000
21	12795	353.906958715092	1000
21	12801	354.029673722409	1000
21	12831	354.993266418698	1000
21	12958	358.65282853716	1000
21	12961	358.699563438895	1000
21	12976	359.070725159696	1000
21	13043	360.851659834587	1000
21	13080	361.525603278806	1000
21	13095	361.984631206293	1000
21	13110	362.359693149412	1000
21	13161	363.978354215832	1000
21	13167	364.051405872987	1000
21	13206	365.202068465916	1000
21	13221	365.681281160399	1000
21	13254	366.686214469459	1000
21	13351	369.301855401881	1000
21	13369	369.853657523519	1000
21	13396	370.662637218652	1000
21	13411	371.000983337351	1000
21	13463	372.227115549585	1000
21	13484	372.819772967522	1000
21	13605	376.290418048057	1000
21	13699	378.880244193554	1000
21	13744	380.222263934737	1000
21	13765	380.818435826134	1000
21	13849	383.587580308972	1000
21	13874	383.88495383688	1000
21	14005	387.357809542783	1000
21	14020	387.709576928213	1000
21	14167	392.539297176182	1000
21	14179	392.826206271566	1000
21	14185	392.93815081271	1000
21	14278	395.953119084896	1000
21	14290	396.218935633918	1000
21	14326	397.389371363932	1000
21	14332	397.449499733062	1000
21	14400	398.761462814147	1000
21	14412	399.079517359338	1000
21	14430	399.556033180311	1000
21	14448	400.024911335939	1000
21	14503	401.406370415787	1000
21	14551	402.993727645479	1000
21	14575	403.694773154805	1000
21	14590	404.046094436347	1000
21	14672	406.217320317701	1000
21	14681	406.48879028413	1000
21	14705	407.186727832961	1000
21	14795	410.044153180777	1000
21	14828	411.049268829349	1000
21	14914	413.068853332568	1000
21	14959	414.458211839516	1000
21	14998	415.660769184225	1000
21	15119	419.10171323181	1000
21	15158	420.332432082841	1000
21	15197	421.567111958894	1000
21	15240	422.513213700148	1000
21	15246	422.678506712469	1000
21	15267	423.218909410071	1000
21	15273	423.3596545655	1000
21	15313	424.286293165797	1000
21	15425	427.511609249514	1000
21	15550	430.947232641992	1000
21	15562	431.268572944861	1000
21	15592	432.165625958967	1000
21	15664	434.436336066364	1000
21	15682	434.958447370775	1000
21	15719	435.761584142696	1000
21	15731	436.080425191109	1000
21	15839	439.589488742113	1000
21	15845	439.615316786539	1000
21	15934	441.804963501097	1000
21	15946	442.130380218259	1000
21	16015	444.38287308833	1000
21	16021	444.40975370784	1000
21	16051	445.392282050562	1000
21	16066	445.792077323039	1000
21	16174	449.207002225471	1000
21	16180	449.391618098377	1000
21	16275	451.709144160943	1000
21	16354	453.909473481387	1000
21	16369	454.337914510178	1000
21	16411	455.685363333869	1000
21	16450	456.826406668122	1000
21	16493	457.800285259602	1000
21	16588	460.033925110701	1000
21	16621	461.052878291777	1000
21	16648	461.847751127843	1000
21	16660	462.166144143899	1000
21	16669	462.326628251257	1000
21	16729	464.266676461135	1000
21	16762	465.274690001619	1000
21	16777	465.630855783183	1000
21	16811	466.247448871706	1000
21	16838	467.003615119496	1000
21	16916	469.556091613043	1000
21	16922	469.649847000653	1000
21	16940	470.170625865524	1000
21	16943	470.195239509595	1000
21	16961	470.614718833064	1000
21	17004	471.58819137671	1000
21	17132	475.057585215487	1000
21	17138	475.162297488916	1000
21	17153	475.504472180532	1000
21	17187	476.278988968467	1000
21	17290	479.252197307949	1000
21	17302	479.50978217429	1000
21	17323	480.116494583534	1000
21	17431	483.694996309371	1000
21	17488	485.489669423368	1000
21	17596	487.952313692774	1000
21	17650	489.632596092855	1000
21	17674	490.345552571983	1000
21	17689	490.75196543873	1000
21	17750	492.316621989428	1000
21	17774	493.098506412532	1000
21	17921	497.824901609393	1000
21	17939	498.307954633656	1000
21	18010	499.951307868862	1000
22	356	11	1008
22	380	11.787201139982	1008
22	411	12.338249626652	1008
22	429	12.823377790374	1008
22	441	13.176536929512	1008
22	447	13.234921598605	1008
22	459	13.553277739447	1008
22	483	14.202724087698	1008
22	534	15.874935288023	1008
22	558	16.528817855244	1008
22	576	17.02768986426	1008
22	633	18.836059128535	1008
22	648	19.247637124778	1008
22	681	20.292249633086	1008
22	699	20.751497770341	1008
22	818	23.901667699017	1008
22	891	25.942559914929	1008
22	942	27.547799471991	1008
22	963	28.166728931618	1008
22	1011	29.683264905608	1008
22	1030	29.809139315046	1008
22	1057	30.681460510088	1008
22	1084	31.452295168555	1008
22	1129	32.873659848649	1008
22	1135	32.985606009282	1008
22	1159	33.627300711313	1008
22	1168	33.833503993343	1008
22	1220	35.168794177967	1008
22	1250	36.009128883579	1008
22	1253	36.02809745278	1008
22	1283	36.989478391846	1008
22	1316	37.936475069021	1008
22	1356	38.896023046389	1008
22	1431	41.224936420603	1008
22	1452	41.822682497421	1008
22	1492	42.772177080918	1008
22	1531	43.968284880375	1008
22	1537	44.030400170841	1008
22	1583	45.129312638392	1008
22	1592	45.31673870441	1008
22	1607	45.760142733031	1008
22	1652	47.149185422822	1008
22	1692	48.085246982593	1008
22	1722	48.929674776121	1008
22	1743	49.506999086928	1008
22	1888	53.961495933104	1008
22	1924	55.019322346456	1008
22	1967	56.027341591876	1008
22	2010	57.08608430697	1008
22	2031	57.621148984053	1008
22	2052	58.264929985656	1008
22	2085	59.241794059727	1008
22	2100	59.654295289649	1008
22	2136	60.777463591182	1008
22	2151	61.159019434556	1008
22	2209	62.665654767829	1008
22	2227	63.125668725569	1008
22	2281	64.846000383286	1008
22	2287	64.948145264811	1008
22	2354	66.767964184095	1008
22	2485	70.341552556439	1008
22	2509	71.054136149772	1008
22	2515	71.111463076196	1008
22	2536	71.711409962837	1008
22	2539	71.731600090983	1008
22	2560	72.31447847985	1008
22	2680	76.206048602695	1008
22	2695	76.651468064615	1008
22	2719	77.307114348979	1008
22	2765	78.473987875528	1008
22	2786	79.008872251285	1008
22	2789	79.075169652767	1008
22	2828	80.254359179832	1008
22	2855	81.090456711802	1008
22	2867	81.3988715519	1008
22	2904	82.139630502347	1008
22	2992	84.679935010306	1008
22	3086	87.329190938982	1008
22	3089	87.338591689646	1008
22	3146	89.185919340648	1008
22	3182	90.227699994827	1008
22	3239	92.068982466314	1008
22	3251	92.376500190076	1008
22	3269	92.883700313333	1008
22	3306	93.688497713134	1008
22	3373	95.454238785547	1008
22	3382	95.612580291778	1008
22	3419	96.455663323926	1008
22	3461	97.784421197676	1008
22	3573	101.059564375391	1008
22	3618	102.470588784685	1008
22	3646	102.974932591273	1008
22	3686	103.824153402837	1008
22	3755	106.045660301311	1008
22	3791	107.185268264844	1008
22	3812	107.781647659174	1008
22	3942	111.624654242418	1008
22	3954	111.977674375692	1008
22	4018	113.658596580238	1008
22	4054	114.783878597082	1008
22	4076	115.071289073152	1008
22	4145	117.206119523135	1008
22	4181	118.38550245678	1008
22	4223	119.677411725581	1008
22	4257	120.373211186481	1008
22	4269	120.635268428156	1008
22	4287	121.137579226417	1008
22	4320	122.102032791911	1008
22	4351	122.746137500234	1008
22	4366	123.105064716104	1008
22	4399	124.18438491476	1008
22	4414	124.526984539458	1008
22	4444	125.489359595229	1008
22	4475	126.049320665303	1008
22	4481	126.157867763798	1008
22	4487	126.254790518375	1008
22	4502	126.691818532149	1008
22	4529	127.494370517908	1008
22	4535	127.528573936266	1008
22	4663	131.001109415548	1008
22	4672	131.251190910526	1008
22	4681	131.40348453578	1008
22	4687	131.505805150633	1008
22	4813	135.643614911143	1008
22	4825	135.945180824366	1008
22	4852	136.715257683912	1008
22	4873	137.309331182236	1008
22	4879	137.414213017836	1008
22	4894	137.84855867378	1008
22	4915	138.482021291503	1008
22	5005	140.32175407658	1008
22	5011	140.499079651725	1008
22	5044	141.455046075647	1008
22	5050	141.587229785262	1008
22	5110	143.471158671848	1008
22	5164	145.117877773175	1008
22	5201	145.959758734907	1008
22	5204	145.993545520459	1008
22	5330	150.043392359264	1008
22	5348	150.510664925674	1008
22	5366	151.055522053819	1008
22	5372	151.107434606002	1008
22	5387	151.562346450794	1008
22	5390	151.579114216786	1008
22	5412	151.841443525952	1008
22	5427	152.287696346471	1008
22	5489	153.596994710494	1008
22	5516	154.333125810481	1008
22	5519	154.38899586337	1008
22	5531	154.612135071471	1008
22	5534	154.630830541892	1008
22	5585	156.209243263998	1008
22	5594	156.462748969141	1008
22	5619	156.886406070498	1008
22	5652	157.823544788221	1008
22	5682	158.731508815546	1008
22	5740	160.262340041813	1008
22	5773	161.233822199908	1008
22	5800	162.094745836589	1008
22	5812	162.366413906931	1008
22	5896	165.087762162844	1008
22	5939	166.039591870386	1008
22	6012	168.036763837876	1008
22	6054	169.346549209238	1008
22	6069	169.720435705141	1008
22	6087	170.228300827828	1008
22	6096	170.463825401247	1008
22	6105	170.66985744973	1008
22	6205	173.558933041629	1008
22	6226	174.160612028153	1008
22	6344	177.67509070869	1008
22	6366	177.968598360613	1008
22	6372	178.026670722729	1008
22	6393	178.695784446419	1008
22	6462	180.82445454095	1008
22	6596	184.571149154775	1008
22	6633	185.353124875651	1008
22	6639	185.422742546725	1008
22	6675	186.560281052266	1008
22	6696	187.164862270601	1008
22	6723	187.933982071697	1008
22	6805	190.203822087481	1008
22	6836	190.837752106875	1008
22	6872	191.925656540489	1008
22	6884	192.231261442303	1008
22	6887	192.252128660913	1008
22	6932	193.672512116498	1008
22	6947	194.058199810543	1008
22	6965	194.541838198033	1008
22	7005	195.429340126517	1008
22	7029	196.162707799685	1008
22	7032	196.16276315158	1008
22	7047	196.536526445397	1008
22	7065	197.090697274445	1008
22	7144	199.25646095532	1008
22	7250	202.309645624913	1008
22	7271	202.970148704662	1008
22	7332	204.524811642471	1008
22	7384	205.837319635437	1008
22	7399	206.213748986958	1008
22	7495	209.370844528374	1008
22	7519	210.009033133967	1008
22	7558	211.252383911916	1008
22	7567	211.419258553149	1008
22	7619	212.730230921309	1008
22	7640	213.353060231074	1008
22	7652	213.67827624905	1008
22	7682	214.562061905083	1008
22	7745	216.55610110636	1008
22	7751	216.681133696283	1008
22	7778	217.409657539017	1008
22	7794	217.551299573812	1008
22	7843	218.770298918993	1008
22	7873	219.603677159639	1008
22	7882	219.806135923337	1008
22	7888	219.962611693721	1008
22	7922	220.632152284582	1008
22	7964	221.912576638561	1008
22	7967	221.943502930122	1008
22	8012	223.317845944542	1008
22	8018	223.415013622909	1008
22	8027	223.660211715551	1008
22	8082	225.043528181702	1008
22	8112	225.92174326042	1008
22	8231	229.190239661243	1008
22	8243	229.465767598281	1008
22	8249	229.571454772386	1008
22	8252	229.588020866808	1008
22	8336	232.240579382328	1008
22	8372	233.348989136542	1008
22	8440	234.886817851019	1008
22	8480	235.769698395976	1008
22	8504	236.487944876084	1008
22	8534	237.35651060755	1008
22	8585	238.905522286705	1008
22	8615	239.838134141974	1008
22	8624	240.084549964187	1008
22	8645	240.691829252806	1008
22	8734	242.802718027189	1008
22	8773	244.05995502276	1008
22	8797	244.725797509397	1008
22	8836	245.958677972428	1008
22	8860	246.648112510276	1008
22	8920	248.509544153258	1008
22	8929	248.725640369852	1008
22	8987	250.209882852502	1008
22	9002	250.636418664538	1008
22	9008	250.796752759025	1008
22	9154	254.804702413899	1008
22	9175	255.49264589236	1008
22	9211	256.512832980315	1008
22	9236	256.972624298091	1008
22	9257	257.531631968082	1008
22	9269	257.885228543345	1008
22	9287	258.397943185975	1008
22	9296	258.526523423251	1008
22	9416	262.47415669081	1008
22	9434	262.995235511895	1008
22	9474	263.837371814732	1008
22	9583	267.077334781633	1008
22	9614	267.607296360905	1008
22	9629	268.012479243247	1008
22	9632	268.097058735009	1008
22	9653	268.620026388665	1008
22	9662	268.884296852801	1008
22	9671	269.026422364194	1008
22	9674	269.081329736745	1008
22	9716	270.374477595541	1008
22	9719	270.38597084575	1008
22	9767	271.858175003744	1008
22	9776	272.0171081834	1008
22	9779	272.099970456319	1008
22	9785	272.193845003602	1008
22	9824	273.308732425509	1008
22	9833	273.59025644798	1008
22	9854	274.135914162747	1008
22	9881	274.950932493643	1008
22	9944	276.920990059235	1008
22	9986	278.21943569484	1008
22	10008	278.534595723556	1008
22	10048	279.430924928577	1008
22	10060	279.789886246954	1008
22	10082	280.093857806183	1008
22	10109	280.837440997959	1008
22	10130	281.420864768994	1008
22	10190	283.335707026637	1008
22	10211	283.903877510379	1008
22	10275	285.657592155403	1008
22	10336	287.211337657435	1008
22	10369	288.290264565935	1008
22	10381	288.52168553789	1008
22	10451	290.4008039721	1008
22	10463	290.701129052386	1008
22	10488	291.169235505621	1008
22	10491	291.178970914962	1008
22	10573	293.405054904404	1008
22	10582	293.624523065298	1008
22	10603	294.240442349082	1008
22	10606	294.286080398578	1008
22	10657	295.894498247664	1008
22	10663	295.974577103608	1008
22	10690	296.706122442741	1008
22	10715	297.072573734574	1008
22	10736	297.607978085667	1008
22	10742	297.799274131565	1008
22	10766	298.444182622731	1008
22	10814	299.975031041674	1008
22	10854	300.78792940286	1008
22	10881	301.556182744727	1008
22	10927	302.699978123846	1008
22	10954	303.47482050335	1008
22	10969	303.868878075297	1008
22	10978	304.027890092096	1008
22	10987	304.202088808679	1008
22	10993	304.340675630102	1008
22	11023	305.205613739531	1008
22	11029	305.302411211839	1008
22	11117	307.716427642347	1008
22	11138	308.330031852088	1008
22	11180	309.617993827164	1008
22	11198	310.12719631403	1008
22	11283	312.471065954829	1008
22	11307	313.112039500093	1008
22	11344	313.980009482111	1008
22	11389	315.39379281165	1008
22	11425	316.404561974749	1008
22	11434	316.679025496753	1008
22	11443	316.854020544971	1008
22	11494	318.445576667764	1008
22	11619	321.643831644534	1008
22	11659	322.537833047214	1008
22	11686	323.353851611179	1008
22	11692	323.456403504183	1008
22	11725	324.428414395245	1008
22	11788	326.416353850089	1008
22	11794	326.587892477462	1008
22	11967	331.471391467807	1008
22	11973	331.570612994291	1008
22	12006	332.574664168169	1008
22	12099	335.556443825495	1008
22	12206	338.317048281178	1008
22	12248	339.617885708638	1008
22	12300	340.973604222488	1008
22	12399	344.16736609517	1008
22	12417	344.606443080758	1008
22	12432	345.047597891488	1008
22	12435	345.064061175473	1008
22	12454	345.26891344262	1008
22	12491	346.037376020011	1008
22	12497	346.142308767339	1008
22	12597	349.048228370995	1008
22	12603	349.144769650023	1008
22	12609	349.20236256684	1008
22	12612	349.292870036988	1008
22	12624	349.563594427725	1008
22	12681	351.393136583584	1008
22	12708	352.132056603523	1008
22	12745	352.851701501212	1008
22	12751	352.922203449573	1008
22	12763	353.212476864696	1008
22	12772	353.462427681346	1008
22	12784	353.754373753075	1008
22	12790	353.89484947003	1008
22	12796	353.906958715092	1008
22	12802	354.029673722409	1008
22	12832	354.993266418698	1008
22	12959	358.65282853716	1008
22	12962	358.699563438895	1008
22	12977	359.070725159696	1008
22	13044	360.851659834587	1008
22	13081	361.525603278806	1008
22	13096	361.984631206293	1008
22	13111	362.359693149412	1008
22	13162	363.978354215832	1008
22	13168	364.051405872987	1008
22	13207	365.202068465916	1008
22	13222	365.681281160399	1008
22	13255	366.686214469459	1008
22	13352	369.301855401881	1008
22	13370	369.853657523519	1008
22	13397	370.662637218652	1008
22	13412	371.000983337351	1008
22	13464	372.227115549585	1008
22	13485	372.819772967522	1008
22	13606	376.290418048057	1008
22	13700	378.880244193554	1008
22	13745	380.222263934737	1008
22	13766	380.818435826134	1008
22	13850	383.587580308972	1008
22	13875	383.88495383688	1008
22	14006	387.357809542783	1008
22	14021	387.709576928213	1008
22	14168	392.539297176182	1008
22	14180	392.826206271566	1008
22	14186	392.93815081271	1008
22	14279	395.953119084896	1008
22	14291	396.218935633918	1008
22	14327	397.389371363932	1008
22	14333	397.449499733062	1008
22	14401	398.761462814147	1008
22	14413	399.079517359338	1008
22	14431	399.556033180311	1008
22	14449	400.024911335939	1008
22	14504	401.406370415787	1008
22	14552	402.993727645479	1008
22	14576	403.694773154805	1008
22	14591	404.046094436347	1008
22	14673	406.217320317701	1008
22	14682	406.48879028413	1008
22	14706	407.186727832961	1008
22	14796	410.044153180777	1008
22	14829	411.049268829349	1008
22	14915	413.068853332568	1008
22	14960	414.458211839516	1008
22	14999	415.660769184225	1008
22	15120	419.10171323181	1008
22	15159	420.332432082841	1008
22	15198	421.567111958894	1008
22	15241	422.513213700148	1008
22	15247	422.678506712469	1008
22	15268	423.218909410071	1008
22	15274	423.3596545655	1008
22	15314	424.286293165797	1008
22	15426	427.511609249514	1008
22	15551	430.947232641992	1008
22	15563	431.268572944861	1008
22	15593	432.165625958967	1008
22	15665	434.436336066364	1008
22	15683	434.958447370775	1008
22	15720	435.761584142696	1008
22	15732	436.080425191109	1008
22	15840	439.589488742113	1008
22	15846	439.615316786539	1008
22	15935	441.804963501097	1008
22	15947	442.130380218259	1008
22	16016	444.38287308833	1008
22	16022	444.40975370784	1008
22	16052	445.392282050562	1008
22	16067	445.792077323039	1008
22	16175	449.207002225471	1008
22	16181	449.391618098377	1008
22	16276	451.709144160943	1008
22	16355	453.909473481387	1008
22	16370	454.337914510178	1008
22	16412	455.685363333869	1008
22	16451	456.826406668122	1008
22	16494	457.800285259602	1008
22	16589	460.033925110701	1008
22	16622	461.052878291777	1008
22	16649	461.847751127843	1008
22	16661	462.166144143899	1008
22	16670	462.326628251257	1008
22	16730	464.266676461135	1008
22	16763	465.274690001619	1008
22	16778	465.630855783183	1008
22	16812	466.247448871706	1008
22	16839	467.003615119496	1008
22	16917	469.556091613043	1008
22	16923	469.649847000653	1008
22	16941	470.170625865524	1008
22	16944	470.195239509595	1008
22	16962	470.614718833064	1008
22	17005	471.58819137671	1008
22	17133	475.057585215487	1008
22	17139	475.162297488916	1008
22	17154	475.504472180532	1008
22	17188	476.278988968467	1008
22	17291	479.252197307949	1008
22	17303	479.50978217429	1008
22	17324	480.116494583534	1008
22	17432	483.694996309371	1008
22	17489	485.489669423368	1008
22	17597	487.952313692774	1008
22	17651	489.632596092855	1008
22	17675	490.345552571983	1008
22	17690	490.75196543873	1008
22	17751	492.316621989428	1008
22	17775	493.098506412532	1008
22	17922	497.824901609393	1008
22	17940	498.307954633656	1008
22	18011	499.951307868862	1008
23	396	12.151893649716	389
23	791	23.387530613691	389
23	1018	29.791038387921	389
23	1459	41.9973649038	389
23	1801	51.367684430443	389
23	2321	65.957177123055	389
23	2732	77.693773433566	389
23	3032	85.873605166562	389
23	3297	93.65079080686	389
23	3498	98.851866312325	389
23	3828	108.184746950865	389
23	4242	120.17953972565	389
23	4639	130.511602242477	389
23	4928	138.721574679948	389
23	5171	145.216057726647	389
23	5397	151.615783558226	389
23	5607	156.732924373354	389
23	6124	171.174121883231	389
23	6496	181.869857201817	389
23	6821	190.647375574334	389
23	7093	197.816345384343	389
23	7339	204.672704816329	389
23	7825	218.475680861155	389
23	8171	227.436277898958	389
23	8459	235.357753206043	389
23	8694	242.174065262078	389
23	9218	256.667253479826	389
23	9535	265.772174894809	389
23	10015	278.660902634728	389
23	10224	284.21464580344	389
23	10476	291.026155431755	389
23	10694	296.724745605607	389
23	11072	306.608846222517	389
23	11571	320.429260372185	389
23	11916	330.010648621247	389
23	12112	335.860659317114	389
23	12442	345.100981835276	389
23	12944	358.554558679462	389
23	13277	367.297790630255	389
23	13646	377.470875761937	389
23	13970	386.446210744325	389
23	14465	400.495694165584	389
23	14869	412.296849552077	389
23	15229	422.493277809118	389
23	15527	430.421218120028	389
23	15896	440.890067087021	389
23	16316	452.976155502256	389
23	16534	459.022434356157	389
23	16794	466.071671177633	389
23	17115	474.79846192291	389
23	17532	486.707399196457	389
23	17727	491.876115952618	389
24	396	12.151893649716	389
24	791	23.387530613691	389
24	1018	29.791038387921	389
24	1459	41.9973649038	389
24	1801	51.367684430443	389
24	2321	65.957177123055	389
24	2732	77.693773433566	389
24	3032	85.873605166562	389
24	3297	93.65079080686	389
24	3498	98.851866312325	389
24	3828	108.184746950865	389
24	4242	120.17953972565	389
24	4639	130.511602242477	389
24	4928	138.721574679948	389
24	5171	145.216057726647	389
24	5397	151.615783558226	389
24	5607	156.732924373354	389
24	6124	171.174121883231	389
24	6496	181.869857201817	389
24	6821	190.647375574334	389
24	7093	197.816345384343	389
24	7339	204.672704816329	389
24	7825	218.475680861155	389
24	8171	227.436277898958	389
24	8459	235.357753206043	389
24	8694	242.174065262078	389
24	9218	256.667253479826	389
24	9535	265.772174894809	389
24	10015	278.660902634728	389
24	10224	284.21464580344	389
24	10476	291.026155431755	389
24	10694	296.724745605607	389
24	11072	306.608846222517	389
24	11571	320.429260372185	389
24	11916	330.010648621247	389
24	12112	335.860659317114	389
24	12442	345.100981835276	389
24	12944	358.554558679462	389
24	13277	367.297790630255	389
24	13646	377.470875761937	389
24	13970	386.446210744325	389
24	14465	400.495694165584	389
24	14869	412.296849552077	389
24	15229	422.493277809118	389
24	15527	430.421218120028	389
24	15896	440.890067087021	389
24	16316	452.976155502256	389
24	16534	459.022434356157	389
24	16794	466.071671177633	389
24	17115	474.79846192291	389
24	17532	486.707399196457	389
24	17727	491.876115952618	389
25	396	12.151893649716	1
25	396	12.151893649716	0
25	791	23.387530613691	1
25	791	23.387530613691	0
25	1018	29.791038387921	1
25	1018	29.791038387921	0
25	1459	41.9973649038	1
25	1459	41.9973649038	0
25	1801	51.367684430443	1
25	1801	51.367684430443	0
25	2321	65.957177123055	1
25	2321	65.957177123055	0
25	2732	77.693773433566	1
25	2732	77.693773433566	0
25	3032	85.873605166562	1
25	3032	85.873605166562	0
25	3297	93.65079080686	1
25	3297	93.65079080686	0
25	3498	98.851866312325	1
25	3498	98.851866312325	0
25	3828	108.184746950865	1
25	3828	108.184746950865	0
25	4242	120.17953972565	1
25	4242	120.17953972565	0
25	4639	130.511602242477	1
25	4639	130.511602242477	0
25	4928	138.721574679948	1
25	4928	138.721574679948	0
25	5171	145.216057726647	1
25	5171	145.216057726647	0
25	5397	151.615783558226	1
25	5397	151.615783558226	0
25	5607	156.732924373354	1
25	5607	156.732924373354	0
25	6124	171.174121883231	1
25	6124	171.174121883231	0
25	6496	181.869857201817	1
25	6496	181.869857201817	0
25	6821	190.647375574334	1
25	6821	190.647375574334	0
25	7093	197.816345384343	1
25	7093	197.816345384343	0
25	7339	204.672704816329	1
25	7339	204.672704816329	0
25	7825	218.475680861155	1
25	7825	218.475680861155	0
25	8171	227.436277898958	1
25	8171	227.436277898958	0
25	8459	235.357753206043	1
25	8459	235.357753206043	0
25	8694	242.174065262078	1
25	8694	242.174065262078	0
25	9218	256.667253479826	1
25	9218	256.667253479826	0
25	9535	265.772174894809	1
25	9535	265.772174894809	0
25	10015	278.660902634728	1
25	10015	278.660902634728	0
25	10224	284.21464580344	1
25	10224	284.21464580344	0
25	10476	291.026155431755	1
25	10476	291.026155431755	0
25	10694	296.724745605607	1
25	10694	296.724745605607	0
25	11072	306.608846222517	1
25	11072	306.608846222517	0
25	11571	320.429260372185	1
25	11571	320.429260372185	0
25	11916	330.010648621247	1
25	11916	330.010648621247	0
25	12112	335.860659317114	1
25	12112	335.860659317114	0
25	12442	345.100981835276	1
25	12442	345.100981835276	0
25	12944	358.554558679462	1
25	12944	358.554558679462	0
25	13277	367.297790630255	1
25	13277	367.297790630255	0
25	13646	377.470875761937	1
25	13646	377.470875761937	0
25	13970	386.446210744325	1
25	13970	386.446210744325	0
25	14465	400.495694165584	1
25	14465	400.495694165584	0
25	14869	412.296849552077	1
25	14869	412.296849552077	0
25	15229	422.493277809118	1
25	15229	422.493277809118	0
25	15527	430.421218120028	1
25	15527	430.421218120028	0
25	15896	440.890067087021	1
25	15896	440.890067087021	0
25	16316	452.976155502256	1
25	16316	452.976155502256	0
25	16534	459.022434356157	1
25	16534	459.022434356157	0
25	16794	466.071671177633	1
25	16794	466.071671177633	0
25	17115	474.79846192291	1
25	17115	474.79846192291	0
25	17532	486.707399196457	1
25	17532	486.707399196457	0
25	17727	491.876115952618	1
25	17727	491.876115952618	0
26	396	12.151893649716	389
26	791	23.387530613691	389
26	1018	29.791038387921	389
26	1459	41.9973649038	389
26	1801	51.367684430443	389
26	2321	65.957177123055	389
26	2732	77.693773433566	389
26	3032	85.873605166562	389
26	3297	93.65079080686	389
26	3498	98.851866312325	389
26	3828	108.184746950865	389
26	4242	120.17953972565	389
26	4639	130.511602242477	389
26	4928	138.721574679948	389
26	5171	145.216057726647	389
26	5397	151.615783558226	389
26	5607	156.732924373354	389
26	6124	171.174121883231	389
26	6496	181.869857201817	389
26	6821	190.647375574334	389
26	7093	197.816345384343	389
26	7339	204.672704816329	389
26	7825	218.475680861155	389
26	8171	227.436277898958	389
26	8459	235.357753206043	389
26	8694	242.174065262078	389
26	9218	256.667253479826	389
26	9535	265.772174894809	389
26	10015	278.660902634728	389
26	10224	284.21464580344	389
26	10476	291.026155431755	389
26	10694	296.724745605607	389
26	11072	306.608846222517	389
26	11571	320.429260372185	389
26	11916	330.010648621247	389
26	12112	335.860659317114	389
26	12442	345.100981835276	389
26	12944	358.554558679462	389
26	13277	367.297790630255	389
26	13646	377.470875761937	389
26	13970	386.446210744325	389
26	14465	400.495694165584	389
26	14869	412.296849552077	389
26	15229	422.493277809118	389
26	15527	430.421218120028	389
26	15896	440.890067087021	389
26	16316	452.976155502256	389
26	16534	459.022434356157	389
26	16794	466.071671177633	389
26	17115	474.79846192291	389
26	17532	486.707399196457	389
26	17727	491.876115952618	389
27	396	12.151893649716	0
27	791	23.387530613691	0
27	1018	29.791038387921	0
27	1459	41.9973649038	0
27	1801	51.367684430443	0
27	2321	65.957177123055	0
27	2732	77.693773433566	0
27	3032	85.873605166562	0
27	3297	93.65079080686	0
27	3498	98.851866312325	0
27	3828	108.184746950865	0
27	4242	120.17953972565	0
27	4639	130.511602242477	0
27	4928	138.721574679948	0
27	5171	145.216057726647	0
27	5397	151.615783558226	0
27	5607	156.732924373354	0
27	6124	171.174121883231	0
27	6496	181.869857201817	0
27	6821	190.647375574334	0
27	7093	197.816345384343	0
27	7339	204.672704816329	0
27	7825	218.475680861155	0
27	8171	227.436277898958	0
27	8459	235.357753206043	0
27	8694	242.174065262078	0
27	9218	256.667253479826	0
27	9535	265.772174894809	0
27	10015	278.660902634728	0
27	10224	284.21464580344	0
27	10476	291.026155431755	0
27	10694	296.724745605607	0
27	11072	306.608846222517	0
27	11571	320.429260372185	0
27	11916	330.010648621247	0
27	12112	335.860659317114	0
27	12442	345.100981835276	0
27	12944	358.554558679462	0
27	13277	367.297790630255	0
27	13646	377.470875761937	0
27	13970	386.446210744325	0
27	14465	400.495694165584	0
27	14869	412.296849552077	0
27	15229	422.493277809118	0
27	15527	430.421218120028	0
27	15896	440.890067087021	0
27	16316	452.976155502256	0
27	16534	459.022434356157	0
27	16794	466.071671177633	0
27	17115	474.79846192291	0
27	17532	486.707399196457	0
27	17727	491.876115952618	0
28	396	12.151893649716	405
28	791	23.387530613691	405
28	1018	29.791038387921	405
28	1459	41.9973649038	405
28	1801	51.367684430443	405
28	2321	65.957177123055	405
28	2732	77.693773433566	405
28	3032	85.873605166562	405
28	3297	93.65079080686	405
28	3498	98.851866312325	405
28	3828	108.184746950865	405
28	4242	120.17953972565	405
28	4639	130.511602242477	405
28	4928	138.721574679948	405
28	5171	145.216057726647	405
28	5397	151.615783558226	405
28	5607	156.732924373354	405
28	6124	171.174121883231	405
28	6496	181.869857201817	405
28	6821	190.647375574334	405
28	7093	197.816345384343	405
28	7339	204.672704816329	405
28	7825	218.475680861155	405
28	8171	227.436277898958	405
28	8459	235.357753206043	405
28	8694	242.174065262078	405
28	9218	256.667253479826	405
28	9535	265.772174894809	405
28	10015	278.660902634728	405
28	10224	284.21464580344	405
28	10476	291.026155431755	405
28	10694	296.724745605607	405
28	11072	306.608846222517	405
28	11571	320.429260372185	405
28	11916	330.010648621247	405
28	12112	335.860659317114	405
28	12442	345.100981835276	405
28	12944	358.554558679462	405
28	13277	367.297790630255	405
28	13646	377.470875761937	405
28	13970	386.446210744325	405
28	14465	400.495694165584	405
28	14869	412.296849552077	405
28	15229	422.493277809118	405
28	15527	430.421218120028	405
28	15896	440.890067087021	405
28	16316	452.976155502256	405
28	16534	459.022434356157	405
28	16794	466.071671177633	405
28	17115	474.79846192291	405
28	17532	486.707399196457	405
28	17727	491.876115952618	405
29	10700	296.724885742799	405
29	11078	306.608985807829	405
29	11577	320.429400088923	405
29	13499	372.876386027494	405
29	13954	386.162955091259	405
29	14364	398.13437129351	405
29	14607	404.272537697503	405
29	15069	417.664429089096	405
29	16540	459.022574460461	405
29	16800	466.071811213145	405
30	10700	296.724885742799	389
30	11078	306.608985807829	389
30	11577	320.429400088923	389
30	13499	372.876386027494	389
30	13954	386.162955091259	389
30	14364	398.13437129351	389
30	14607	404.272537697503	389
[...]
36	18016	381.1	0
36	18016	381.2	0
36	18016	381.3	0
36	18016	381.4	0
36	18016	381.5	0
36	18016	381.6	0
36	18016	381.7	0
36	18016	381.8	0
36	18016	381.9	0
36	18016	382	0
36	18016	382.1	0
36	18016	382.2	0
36	18016	382.3	0
36	18016	382.4	0
36	18016	382.5	0
36	18016	382.6	0
36	18016	382.7	0
36	18016	382.8	0
36	18016	382.9	0
36	18016	383	0
36	18016	383.1	0
36	18016	383.2	0
36	18016	383.3	0
36	18016	383.4	0
36	18016	383.5	0
36	18016	383.6	0
36	18016	383.7	0
36	18016	383.8	0
36	18016	383.9	0
36	18016	384	0
36	18016	384.1	0
36	18016	384.2	0
36	18016	384.3	0
36	18016	384.4	0
36	18016	384.5	0
36	18016	384.6	0
36	18016	384.7	0
36	18016	384.8	0
36	18016	384.9	0
36	18016	385	0
36	18016	385.1	0
36	18016	385.2	0
36	18016	385.3	0
36	18016	385.4	0
36	18016	385.5	0
36	18016	385.6	0
36	18016	385.7	0
36	18016	385.8	0
36	18016	385.9	0
36	18016	386	0
36	18016	386.1	0
36	18016	386.2	0
36	18016	386.3	0
36	18016	386.4	0
36	18016	386.5	0
36	18016	386.6	0
36	18016	386.7	0
36	18016	386.8	0
36	18016	386.9	0
36	18016	387	0
36	18016	387.1	0
36	18016	387.2	0
36	18016	387.3	0
36	18016	387.4	0
36	18016	387.5	0
36	18016	387.6	0
36	18016	387.7	0
36	18016	387.8	0
36	18016	387.9	0
36	18016	388	0
36	18016	388.1	0
36	18016	388.2	0
36	18016	388.3	0
36	18016	388.4	0
36	18016	388.5	0
36	18016	388.6	0
36	18016	388.7	0
36	18016	388.8	0
36	18016	388.9	0
36	18016	389	0
36	18016	389.1	0
36	18016	389.2	0
36	18016	389.3	0
36	18016	389.4	0
36	18016	389.5	0
36	18016	389.6	0
36	18016	389.7	0
36	18016	389.8	0
36	18016	389.9	0
36	18016	390	0
36	18016	390.1	0
36	18016	390.2	0
36	18016	390.3	0
36	18016	390.4	0
36	18016	390.5	0
36	18016	390.6	0
36	18016	390.7	0
36	18016	390.8	0
36	18016	390.9	0
36	18016	391	0
36	18016	391.1	0
36	18016	391.2	0
36	18016	391.3	0
36	18016	391.4	0
36	18016	391.5	0
36	18016	391.6	0
36	18016	391.7	0
36	18016	391.8	0
36	18016	391.9	0
36	18016	392	0
36	18016	392.1	0
36	18016	392.2	0
36	18016	392.3	0
36	18016	392.4	0
36	18016	392.5	0
36	18016	392.6	0
36	18016	392.7	0
36	18016	392.8	0
36	18016	392.9	0
36	18016	393	0
36	18016	393.1	0
36	18016	393.2	0
36	18016	393.3	0
36	18016	393.4	0
36	18016	393.5	0
36	18016	393.6	0
36	18016	393.7	0
36	18016	393.8	0
36	18016	393.9	0
36	18016	394	0
36	18016	394.1	0
36	18016	394.2	0
36	18016	394.3	0
36	18016	394.4	0
36	18016	394.5	0
36	18016	394.6	0
36	18016	394.7	0
36	18016	394.8	0
36	18016	394.9	0
36	18016	395	0
36	18016	395.1	0
36	18016	395.2	0
36	18016	395.3	0
36	18016	395.4	0
36	18016	395.5	0
36	18016	395.6	0
36	18016	395.7	0
36	18016	395.8	0
36	18016	395.9	0
36	18016	396	0
36	18016	396.1	0
36	18016	396.2	0
36	18016	396.3	0
36	18016	396.4	0
36	18016	396.5	0
36	18016	396.6	0
36	18016	396.7	0
36	18016	396.8	0
36	18016	396.9	0
36	18016	397	0
36	18016	397.1	0
36	18016	397.2	0
36	18016	397.3	0
36	18016	397.4	0
36	18016	397.5	0
36	18016	397.6	0
36	18016	397.7	0
36	18016	397.8	0
36	18016	397.9	0
36	18016	398	0
36	18016	398.1	0
36	18016	398.2	0
36	18016	398.3	0
36	18016	398.4	0
36	18016	398.5	0
36	18016	398.6	0
36	18016	398.7	0
36	18016	398.8	0
36	18016	398.9	0
36	18016	399	0
36	18016	399.1	0
36	18016	399.2	0
36	18016	399.3	0
36	18016	399.4	0
36	18016	399.5	0
36	18016	399.6	0
36	18016	399.7	0
36	18016	399.8	0
36	18016	399.9	0
36	18016	400	0
36	18016	400.1	0
36	18016	400.2	0
36	18016	400.3	0
36	18016	400.4	0
36	18016	400.5	0
36	18016	400.6	0
36	18016	400.7	0
36	18016	400.8	0
36	18016	400.9	0
36	18016	401	0
36	18016	401.1	0
36	18016	401.2	0
36	18016	401.3	0
36	18016	401.4	0
36	18016	401.5	0
36	18016	401.6	0
36	18016	401.7	0
36	18016	401.8	0
36	18016	401.9	0
36	18016	402	0
36	18016	402.1	0
36	18016	402.2	0
36	18016	402.3	0
36	18016	402.4	0
36	18016	402.5	0
36	18016	402.6	0
36	18016	402.7	0
36	18016	402.8	0
36	18016	402.9	0
36	18016	403	0
36	18016	403.1	0
36	18016	403.2	0
36	18016	403.3	0
36	18016	403.4	0
36	18016	403.5	0
36	18016	403.6	0
36	18016	403.7	0
36	18016	403.8	0
36	18016	403.9	0
36	18016	404	0
36	18016	404.1	0
36	18016	404.2	0
36	18016	404.3	0
36	18016	404.4	0
36	18016	404.5	0
36	18016	404.6	0
36	18016	404.7	0
36	18016	404.8	0
36	18016	404.9	0
36	18016	405	0
36	18016	405.1	0
36	18016	405.2	0
36	18016	405.3	0
36	18016	405.4	0
36	18016	405.5	0
36	18016	405.6	0
36	18016	405.7	0
36	18016	405.8	0
36	18016	405.9	0
36	18016	406	0
36	18016	406.1	0
36	18016	406.2	0
36	18016	406.3	0
36	18016	406.4	0
36	18016	406.5	0
36	18016	406.6	0
36	18016	406.7	0
36	18016	406.8	0
36	18016	406.9	0
36	18016	407	0
36	18016	407.1	0
36	18016	407.2	0
36	18016	407.3	0
36	18016	407.4	0
36	18016	407.5	0
36	18016	407.6	0
36	18016	407.7	0
36	18016	407.8	0
36	18016	407.9	0
36	18016	408	0
36	18016	408.1	0
36	18016	408.2	0
36	18016	408.3	0
36	18016	408.4	0
36	18016	408.5	0
36	18016	408.6	0
36	18016	408.7	0
36	18016	408.8	0
36	18016	408.9	0
36	18016	409	0
36	18016	409.1	0
36	18016	409.2	0
36	18016	409.3	0
36	18016	409.4	0
36	18016	409.5	0
36	18016	409.6	0
36	18016	409.7	0
36	18016	409.8	0
36	18016	409.9	0
36	18016	410	0
36	18016	410.1	0
36	18016	410.2	0
36	18016	410.3	0
36	18016	410.4	0
36	18016	410.5	0
36	18016	410.6	0
36	18016	410.7	0
36	18016	410.8	0
36	18016	410.9	0
36	18016	411	0
36	18016	411.1	0
36	18016	411.2	0
36	18016	411.3	0
36	18016	411.4	0
36	18016	411.5	0
36	18016	411.6	0
36	18016	411.7	0
36	18016	411.8	0
36	18016	411.9	0
36	18016	412	0
36	18016	412.1	0
36	18016	412.2	0
36	18016	412.3	0
36	18016	412.4	0
36	18016	412.5	0
36	18016	412.6	0
36	18016	412.7	0
36	18016	412.8	0
36	18016	412.9	0
36	18016	413	0
36	18016	413.1	0
36	18016	413.2	0
36	18016	413.3	0
36	18016	413.4	0
36	18016	413.5	0
36	18016	413.6	0
36	18016	413.7	0
36	18016	413.8	0
36	18016	413.9	0
36	18016	414	0
36	18016	414.1	0
36	18016	414.2	0
36	18016	414.3	0
36	18016	414.4	0
36	18016	414.5	0
36	18016	414.6	0
36	18016	414.7	0
36	18016	414.8	0
36	18016	414.9	0
36	18016	415	0
36	18016	415.1	0
36	18016	415.2	0
36	18016	415.3	0
36	18016	415.4	0
36	18016	415.5	0
36	18016	415.6	0
36	18016	415.7	0
36	18016	415.8	0
36	18016	415.9	0
36	18016	416	0
36	18016	416.1	0
36	18016	416.2	0
36	18016	416.3	0
36	18016	416.4	0
36	18016	416.5	0
36	18016	416.6	0
36	18016	416.7	0
36	18016	416.8	0
36	18016	416.9	0
36	18016	417	0
36	18016	417.1	0
36	18016	417.2	0
36	18016	417.3	0
36	18016	417.4	0
36	18016	417.5	0
36	18016	417.6	0
36	18016	417.7	0
36	18016	417.8	0
36	18016	417.9	0
36	18016	418	0
36	18016	418.1	0
36	18016	418.2	0
36	18016	418.3	0
36	18016	418.4	0
36	18016	418.5	0
36	18016	418.6	0
36	18016	418.7	0
36	18016	418.8	0
36	18016	418.9	0
36	18016	419	0
36	18016	419.1	0
36	18016	419.2	0
36	18016	419.3	0
36	18016	419.4	0
36	18016	419.5	0
36	18016	419.6	0
36	18016	419.7	0
36	18016	419.8	0
36	18016	419.9	0
36	18016	420	0
36	18016	420.1	0
36	18016	420.2	0
36	18016	420.3	0
36	18016	420.4	0
36	18016	420.5	0
36	18016	420.6	0
36	18016	420.7	0
36	18016	420.8	0
36	18016	420.9	0
36	18016	421	0
36	18016	421.1	0
36	18016	421.2	0
36	18016	421.3	0
36	18016	421.4	0
36	18016	421.5	0
36	18016	421.6	0
36	18016	421.7	0
36	18016	421.8	0
36	18016	421.9	0
36	18016	422	0
36	18016	422.1	0
36	18016	422.2	0
36	18016	422.3	0
36	18016	422.4	0
36	18016	422.5	0
36	18016	422.6	0
36	18016	422.7	0
36	18016	422.8	0
36	18016	422.9	0
36	18016	423	0
36	18016	423.1	0
36	18016	423.2	0
36	18016	423.3	0
36	18016	423.4	0
36	18016	423.5	0
36	18016	423.6	0
36	18016	423.7	0
36	18016	423.8	0
36	18016	423.9	0
36	18016	424	0
36	18016	424.1	0
36	18016	424.2	0
36	18016	424.3	0
36	18016	424.4	0
36	18016	424.5	0
36	18016	424.6	0
36	18016	424.7	0
36	18016	424.8	0
36	18016	424.9	0
36	18016	425	0
36	18016	425.1	0
36	18016	425.2	0
36	18016	425.3	0
36	18016	425.4	0
36	18016	425.5	0
36	18016	425.6	0
36	18016	425.7	0
36	18016	425.8	0
36	18016	425.9	0
36	18016	426	0
36	18016	426.1	0
36	18016	426.2	0
36	18016	426.3	0
36	18016	426.4	0
36	18016	426.5	0
36	18016	426.6	0
36	18016	426.7	0
36	18016	426.8	0
36	18016	426.9	0
36	18016	427	0
36	18016	427.1	0
36	18016	427.2	0
36	18016	427.3	0
36	18016	427.4	0
36	18016	427.5	0
36	18016	427.6	0
36	18016	427.7	0
36	18016	427.8	0
36	18016	427.9	0
36	18016	428	0
36	18016	428.1	0
36	18016	428.2	0
36	18016	428.3	0
36	18016	428.4	0
36	18016	428.5	0
36	18016	428.6	0
36	18016	428.7	0
36	18016	428.8	0
36	18016	428.9	0
36	18016	429	0
36	18016	429.1	0
36	18016	429.2	0
36	18016	429.3	0
36	18016	429.4	0
36	18016	429.5	0
36	18016	429.6	0
36	18016	429.7	0
36	18016	429.8	0
36	18016	429.9	0
36	18016	430	0
36	18016	430.1	0
36	18016	430.2	0
36	18016	430.3	0
36	18016	430.4	0
36	18016	430.5	0
36	18016	430.6	0
36	18016	430.7	0
36	18016	430.8	0
36	18016	430.9	0
36	18016	431	0
36	18016	431.1	0
36	18016	431.2	0
36	18016	431.3	0
36	18016	431.4	0
36	18016	431.5	0
36	18016	431.6	0
36	18016	431.7	0
36	18016	431.8	0
36	18016	431.9	0
36	18016	432	0
36	18016	432.1	0
36	18016	432.2	0
36	18016	432.3	0
36	18016	432.4	0
36	18016	432.5	0
36	18016	432.6	0
36	18016	432.7	0
36	18016	432.8	0
36	18016	432.9	0
36	18016	433	0
36	18016	433.1	0
36	18016	433.2	0
36	18016	433.3	0
36	18016	433.4	0
36	18016	433.5	0
36	18016	433.6	0
36	18016	433.7	0
36	18016	433.8	0
36	18016	433.9	0
36	18016	434	0
36	18016	434.1	0
36	18016	434.2	0
36	18016	434.3	0
36	18016	434.4	0
36	18016	434.5	0
36	18016	434.6	0
36	18016	434.7	0
36	18016	434.8	0
36	18016	434.9	0
36	18016	435	0
36	18016	435.1	0
36	18016	435.2	0
36	18016	435.3	0
36	18016	435.4	0
36	18016	435.5	0
36	18016	435.6	0
36	18016	435.7	0
36	18016	435.8	0
36	18016	435.9	0
36	18016	436	0
36	18016	436.1	0
36	18016	436.2	0
36	18016	436.3	0
36	18016	436.4	0
36	18016	436.5	0
36	18016	436.6	0
36	18016	436.7	0
36	18016	436.8	0
36	18016	436.9	0
36	18016	437	0
36	18016	437.1	0
36	18016	437.2	0
36	18016	437.3	0
36	18016	437.4	0
36	18016	437.5	0
36	18016	437.6	0
36	18016	437.7	0
36	18016	437.8	0
36	18016	437.9	0
36	18016	438	0
36	18016	438.1	0
36	18016	438.2	0
36	18016	438.3	0
36	18016	438.4	0
36	18016	438.5	0
36	18016	438.6	0
36	18016	438.7	0
36	18016	438.8	0
36	18016	438.9	0
36	18016	439	0
36	18016	439.1	0
36	18016	439.2	0
36	18016	439.3	0
36	18016	439.4	0
36	18016	439.5	0
36	18016	439.6	0
36	18016	439.7	0
36	18016	439.8	0
36	18016	439.9	0
36	18016	440	0
36	18016	440.1	0
36	18016	440.2	0
36	18016	440.3	0
36	18016	440.4	0
36	18016	440.5	0
36	18016	440.6	0
36	18016	440.7	0
36	18016	440.8	0
36	18016	440.9	0
36	18016	441	0
36	18016	441.1	0
36	18016	441.2	0
36	18016	441.3	0
36	18016	441.4	0
36	18016	441.5	0
36	18016	441.6	0
36	18016	441.7	0
36	18016	441.8	0
36	18016	441.9	0
36	18016	442	0
36	18016	442.1	0
36	18016	442.2	0
36	18016	442.3	0
36	18016	442.4	0
36	18016	442.5	0
36	18016	442.6	0
36	18016	442.7	0
36	18016	442.8	0
36	18016	442.9	0
36	18016	443	0
36	18016	443.1	0
36	18016	443.2	0
36	18016	443.3	0
36	18016	443.4	0
36	18016	443.5	0
36	18016	443.6	0
36	18016	443.7	0
36	18016	443.8	0
36	18016	443.9	0
36	18016	444	0
36	18016	444.1	0
36	18016	444.2	0
36	18016	444.3	0
36	18016	444.4	0
36	18016	444.5	0
36	18016	444.6	0
36	18016	444.7	0
36	18016	444.8	0
36	18016	444.9	0
36	18016	445	0
36	18016	445.1	0
36	18016	445.2	0
36	18016	445.3	0
36	18016	445.4	0
36	18016	445.5	0
36	18016	445.6	0
36	18016	445.7	0
36	18016	445.8	0
36	18016	445.9	0
36	18016	446	0
36	18016	446.1	0
36	18016	446.2	0
36	18016	446.3	0
36	18016	446.4	0
36	18016	446.5	0
36	18016	446.6	0
36	18016	446.7	0
36	18016	446.8	0
36	18016	446.9	0
36	18016	447	0
36	18016	447.1	0
36	18016	447.2	0
36	18016	447.3	0
36	18016	447.4	0
36	18016	447.5	0
36	18016	447.6	0
36	18016	447.7	0
36	18016	447.8	0
36	18016	447.9	0
36	18016	448	0
36	18016	448.1	0
36	18016	448.2	0
36	18016	448.3	0
36	18016	448.4	0
36	18016	448.5	0
36	18016	448.6	0
36	18016	448.7	0
36	18016	448.8	0
36	18016	448.9	0
36	18016	449	0
36	18016	449.1	0
36	18016	449.2	0
36	18016	449.3	0
36	18016	449.4	0
36	18016	449.5	0
36	18016	449.6	0
36	18016	449.7	0
36	18016	449.8	0
36	18016	449.9	0
36	18016	450	0
36	18016	450.1	0
36	18016	450.2	0
36	18016	450.3	0
36	18016	450.4	0
36	18016	450.5	0
36	18016	450.6	0
36	18016	450.7	0
36	18016	450.8	0
36	18016	450.9	0
36	18016	451	0
36	18016	451.1	0
36	18016	451.2	0
36	18016	451.3	0
36	18016	451.4	0
36	18016	451.5	0
36	18016	451.6	0
36	18016	451.7	0
36	18016	451.8	0
36	18016	451.9	0
36	18016	452	0
36	18016	452.1	0
36	18016	452.2	0
36	18016	452.3	0
36	18016	452.4	0
36	18016	452.5	0
36	18016	452.6	0
36	18016	452.7	0
36	18016	452.8	0
36	18016	452.9	0
36	18016	453	0
36	18016	453.1	0
36	18016	453.2	0
36	18016	453.3	0
36	18016	453.4	0
36	18016	453.5	0
36	18016	453.6	0
36	18016	453.7	0
36	18016	453.8	0
36	18016	453.9	0
36	18016	454	0
36	18016	454.1	0
36	18016	454.2	0
36	18016	454.3	0
36	18016	454.4	0
36	18016	454.5	0
36	18016	454.6	0
36	18016	454.7	0
36	18016	454.8	0
36	18016	454.9	0
36	18016	455	0
36	18016	455.1	0
36	18016	455.2	0
36	18016	455.3	0
36	18016	455.4	0
36	18016	455.5	0
36	18016	455.6	0
36	18016	455.7	0
36	18016	455.8	0
36	18016	455.9	0
36	18016	456	0
36	18016	456.1	0
36	18016	456.2	0
36	18016	456.3	0
36	18016	456.4	0
36	18016	456.5	0
36	18016	456.6	0
36	18016	456.7	0
36	18016	456.8	0
36	18016	456.9	0
36	18016	457	0
36	18016	457.1	0
36	18016	457.2	0
36	18016	457.3	0
36	18016	457.4	0
36	18016	457.5	0
36	18016	457.6	0
36	18016	457.7	0
36	18016	457.8	0
36	18016	457.9	0
36	18016	458	0
36	18016	458.1	0
36	18016	458.2	0
36	18016	458.3	0
36	18016	458.4	0
36	18016	458.5	0
36	18016	458.6	0
36	18016	458.7	0
36	18016	458.8	0
36	18016	458.9	0
36	18016	459	0
36	18016	459.1	0
36	18016	459.2	0
36	18016	459.3	0
36	18016	459.4	0
36	18016	459.5	0
36	18016	459.6	0
36	18016	459.7	0
36	18016	459.8	0
36	18016	459.9	0
36	18016	460	0
36	18016	460.1	0
36	18016	460.2	0
36	18016	460.3	0
36	18016	460.4	0
36	18016	460.5	0
36	18016	460.6	0
36	18016	460.7	0
36	18016	460.8	0
36	18016	460.9	0
36	18016	461	0
36	18016	461.1	0
36	18016	461.2	0
36	18016	461.3	0
36	18016	461.4	0
36	18016	461.5	0
36	18016	461.6	0
36	18016	461.7	0
36	18016	461.8	0
36	18016	461.9	0
36	18016	462	0
36	18016	462.1	0
36	18016	462.2	0
36	18016	462.3	0
36	18016	462.4	0
36	18016	462.5	0
36	18016	462.6	0
36	18016	462.7	0
36	18016	462.8	0
36	18016	462.9	0
36	18016	463	0
36	18016	463.1	0
36	18016	463.2	0
36	18016	463.3	0
36	18016	463.4	0
36	18016	463.5	0
36	18016	463.6	0
36	18016	463.7	0
36	18016	463.8	0
36	18016	463.9	0
36	18016	464	0
36	18016	464.1	0
36	18016	464.2	0
36	18016	464.3	0
36	18016	464.4	0
36	18016	464.5	0
36	18016	464.6	0
36	18016	464.7	0
36	18016	464.8	0
36	18016	464.9	0
36	18016	465	0
36	18016	465.1	0
36	18016	465.2	0
36	18016	465.3	0
36	18016	465.4	0
36	18016	465.5	0
36	18016	465.6	0
36	18016	465.7	0
36	18016	465.8	0
36	18016	465.9	0
36	18016	466	0
36	18016	466.1	0
36	18016	466.2	0
36	18016	466.3	0
36	18016	466.4	0
36	18016	466.5	0
36	18016	466.6	0
36	18016	466.7	0
36	18016	466.8	0
36	18016	466.9	0
36	18016	467	0
36	18016	467.1	0
36	18016	467.2	0
36	18016	467.3	0
36	18016	467.4	0
36	18016	467.5	0
36	18016	467.6	0
36	18016	467.7	0
36	18016	467.8	0
36	18016	467.9	0
36	18016	468	0
36	18016	468.1	0
36	18016	468.2	0
36	18016	468.3	0
36	18016	468.4	0
36	18016	468.5	0
36	18016	468.6	0
36	18016	468.7	0
36	18016	468.8	0
36	18016	468.9	0
36	18016	469	0
36	18016	469.1	0
36	18016	469.2	0
36	18016	469.3	0
36	18016	469.4	0
36	18016	469.5	0
36	18016	469.6	0
36	18016	469.7	0
36	18016	469.8	0
36	18016	469.9	0
36	18016	470	0
36	18016	470.1	0
36	18016	470.2	0
36	18016	470.3	0
36	18016	470.4	0
36	18016	470.5	0
36	18016	470.6	0
36	18016	470.7	0
36	18016	470.8	0
36	18016	470.9	0
36	18016	471	0
36	18016	471.1	0
36	18016	471.2	0
36	18016	471.3	0
36	18016	471.4	0
36	18016	471.5	0
36	18016	471.6	0
36	18016	471.7	0
36	18016	471.8	0
36	18016	471.9	0
36	18016	472	0
36	18016	472.1	0
36	18016	472.2	0
36	18016	472.3	0
36	18016	472.4	0
36	18016	472.5	0
36	18016	472.6	0
36	18016	472.7	0
36	18016	472.8	0
36	18016	472.9	0
36	18016	473	0
36	18016	473.1	0
36	18016	473.2	0
36	18016	473.3	0
36	18016	473.4	0
36	18016	473.5	0
36	18016	473.6	0
36	18016	473.7	0
36	18016	473.8	0
36	18016	473.9	0
36	18016	474	0
36	18016	474.1	0
36	18016	474.2	0
36	18016	474.3	0
36	18016	474.4	0
36	18016	474.5	0
36	18016	474.6	0
36	18016	474.7	0
36	18016	474.8	0
36	18016	474.9	0
36	18016	475	0
36	18016	475.1	0
36	18016	475.2	0
36	18016	475.3	0
36	18016	475.4	0
36	18016	475.5	0
36	18016	475.6	0
36	18016	475.7	0
36	18016	475.8	0
36	18016	475.9	0
36	18016	476	0
36	18016	476.1	0
36	18016	476.2	0
36	18016	476.3	0
36	18016	476.4	0
36	18016	476.5	0
36	18016	476.6	0
36	18016	476.7	0
36	18016	476.8	0
36	18016	476.9	0
36	18016	477	0
36	18016	477.1	0
36	18016	477.2	0
36	18016	477.3	0
36	18016	477.4	0
36	18016	477.5	0
36	18016	477.6	0
36	18016	477.7	0
36	18016	477.8	0
36	18016	477.9	0
36	18016	478	0
36	18016	478.1	0
36	18016	478.2	0
36	18016	478.3	0
36	18016	478.4	0
36	18016	478.5	0
36	18016	478.6	0
36	18016	478.7	0
36	18016	478.8	0
36	18016	478.9	0
36	18016	479	0
36	18016	479.1	0
36	18016	479.2	0
36	18016	479.3	0
36	18016	479.4	0
36	18016	479.5	0
36	18016	479.6	0
36	18016	479.7	0
36	18016	479.8	0
36	18016	479.9	0
36	18016	480	0
36	18016	480.1	0
36	18016	480.2	0
36	18016	480.3	0
36	18016	480.4	0
36	18016	480.5	0
36	18016	480.6	0
36	18016	480.7	0
36	18016	480.8	0
36	18016	480.9	0
36	18016	481	0
36	18016	481.1	0
36	18016	481.2	0
36	18016	481.3	0
36	18016	481.4	0
36	18016	481.5	0
36	18016	481.6	0
36	18016	481.7	0
36	18016	481.8	0
36	18016	481.9	0
36	18016	482	0
36	18016	482.1	0
36	18016	482.2	0
36	18016	482.3	0
36	18016	482.4	0
36	18016	482.5	0
36	18016	482.6	0
36	18016	482.7	0
36	18016	482.8	0
36	18016	482.9	0
36	18016	483	0
36	18016	483.1	0
36	18016	483.2	0
36	18016	483.3	0
36	18016	483.4	0
36	18016	483.5	0
36	18016	483.6	0
36	18016	483.7	0
36	18016	483.8	0
36	18016	483.9	0
36	18016	484	0
36	18016	484.1	0
36	18016	484.2	0
36	18016	484.3	0
36	18016	484.4	0
36	18016	484.5	0
36	18016	484.6	0
36	18016	484.7	0
36	18016	484.8	0
36	18016	484.9	0
36	18016	485	0
36	18016	485.1	0
36	18016	485.2	0
36	18016	485.3	0
36	18016	485.4	0
36	18016	485.5	0
36	18016	485.6	0
36	18016	485.7	0
36	18016	485.8	0
36	18016	485.9	0
36	18016	486	0
36	18016	486.1	0
36	18016	486.2	0
36	18016	486.3	0
36	18016	486.4	0
36	18016	486.5	0
36	18016	486.6	0
36	18016	486.7	0
36	18016	486.8	0
36	18016	486.9	0
36	18016	487	0
36	18016	487.1	0
36	18016	487.2	0
36	18016	487.3	0
36	18016	487.4	0
36	18016	487.5	0
36	18016	487.6	0
36	18016	487.7	0
36	18016	487.8	0
36	18016	487.9	0
36	18016	488	0
36	18016	488.1	0
36	18016	488.2	0
36	18016	488.3	0
36	18016	488.4	0
36	18016	488.5	0
36	18016	488.6	0
36	18016	488.7	0
36	18016	488.8	0
36	18016	488.9	0
36	18016	489	0
36	18016	489.1	0
36	18016	489.2	0
36	18016	489.3	0
36	18016	489.4	0
36	18016	489.5	0
36	18016	489.6	0
36	18016	489.7	0
36	18016	489.8	0
36	18016	489.9	0
36	18016	490	0
36	18016	490.1	0
36	18016	490.2	0
36	18016	490.3	0
36	18016	490.4	0
36	18016	490.5	0
36	18016	490.6	0
36	18016	490.7	0
36	18016	490.8	0
36	18016	490.9	0
36	18016	491	0
36	18016	491.1	0
36	18016	491.2	0
36	18016	491.3	0
36	18016	491.4	0
36	18016	491.5	0
36	18016	491.6	0
36	18016	491.7	0
36	18016	491.8	0
36	18016	491.9	0
36	18016	492	0
36	18016	492.1	0
36	18016	492.2	0
36	18016	492.3	0
36	18016	492.4	0
36	18016	492.5	0
36	18016	492.6	0
36	18016	492.7	0
36	18016	492.8	0
36	18016	492.9	0
36	18016	493	0
36	18016	493.1	0
36	18016	493.2	0
36	18016	493.3	0
36	18016	493.4	0
36	18016	493.5	0
36	18016	493.6	0
36	18016	493.7	0
36	18016	493.8	0
36	18016	493.9	0
36	18016	494	0
36	18016	494.1	0
36	18016	494.2	0
36	18016	494.3	0
36	18016	494.4	0
36	18016	494.5	0
36	18016	494.6	0
36	18016	494.7	0
36	18016	494.8	0
36	18016	494.9	0
36	18016	495	0
36	18016	495.1	0
36	18016	495.2	0
36	18016	495.3	0
36	18016	495.4	0
36	18016	495.5	0
36	18016	495.6	0
36	18016	495.7	0
36	18016	495.8	0
36	18016	495.9	0
36	18016	496	0
36	18016	496.1	0
36	18016	496.2	0
36	18016	496.3	0
36	18016	496.4	0
36	18016	496.5	0
36	18016	496.6	0
36	18016	496.7	0
36	18016	496.8	0
36	18016	496.9	0
36	18016	497	0
36	18016	497.1	0
36	18016	497.2	0
36	18016	497.3	0
36	18016	497.4	0
36	18016	497.5	0
36	18016	497.6	0
36	18016	497.7	0
36	18016	497.8	0
36	18016	497.9	0
36	18016	498	0
36	18016	498.1	0
36	18016	498.2	0
36	18016	498.3	0
36	18016	498.4	0
36	18016	498.5	0
36	18016	498.6	0
36	18016	498.7	0
36	18016	498.8	0
36	18016	498.9	0
36	18016	499	0
36	18016	499.1	0
36	18016	499.2	0
36	18016	499.3	0
36	18016	499.4	0
36	18016	499.5	0
36	18016	499.6	0
36	18016	499.7	0
36	18016	499.8	0
36	18016	499.9	0
36	18016	500	0

