version 2
run SecureSybil-0-20220612-14:50:53-48898
attr configname SecureSybil
attr datetime 20220612-14:50:53
attr experiment SecureSybil
attr inifile omnetpp.ini
attr iterationvars ""
attr iterationvarsf ""
attr measurement ""
attr network FanetSecureSybil
attr processid 48898
attr repetition 0
attr replication #0
attr resultdir results
attr runnumber 0
attr seedset 0
param *.host[0].numApps 1
param *.host[0].app[0].typename "\"UdpBasicApp\""
param *.host[0].app[0].startTime 11s
param *.host[0].app[0].destAddresses "\"host[1]\""
param *.host[0].app[0].destPort 5000
param *.host[0].app[0].messageLength 1000B
param *.host[0].app[0].sendInterval exponential(1s)
param *.host[0].app[0].packetName "\"UDPdata\""
param *.host[1].numApps 1
param *.host[1].app[0].typename "\"UdpSink\""
param *.host[1].app[0].localPort 5000
param **.wlan[*].bitrate 24Mbps
param *.configurator.addStaticRoutes false
param **.netmaskRoutes "\"\""
param **.arp.typename "\"GlobalArp\""
param *.host*.wlan[0].typename "\"AckingWirelessInterface\""
param *.host*.wlan[0].radio.transmitter.communicationRange 4000m
param *.host*.wlan[0].radio.displayCommunicationRange true
param *.visualizer.osgVisualizer.typename "\"IntegratedOsgVisualizer\""
param *.visualizer.osgVisualizer.sceneVisualizer.clearColor "\"skyblue\""
param *.visualizer.osgVisualizer.sceneVisualizer.sceneImage "\"showcases/desert\""
param *.visualizer.osgVisualizer.sceneVisualizer.sceneImageSize 5000m
param *.visualizer.osgVisualizer.sceneVisualizer.axisLength 1000m
param *.visualizer.osgVisualizer.sceneVisualizer.sceneMinX -2000m
param *.visualizer.osgVisualizer.sceneVisualizer.sceneMinY -2000m
param *.visualizer.osgVisualizer.sceneVisualizer.sceneMinZ 0m
param *.visualizer.osgVisualizer.sceneVisualizer.sceneMaxX 3000m
param *.visualizer.osgVisualizer.sceneVisualizer.sceneMaxY 3000m
param *.visualizer.osgVisualizer.sceneVisualizer.sceneMaxZ 1000m
param *.visualizer.osgVisualizer.networkNodeVisualizer.displayModuleName false
param *.visualizer.*.mobilityVisualizer.displayMobility true
param *.visualizer.*.mobilityVisualizer.displayPositions true
param *.visualizer.*.mobilityVisualizer.displayOrientations true
param *.visualizer.*.mobilityVisualizer.displayVelocities true
param *.visualizer.*.mobilityVisualizer.displayMovementTrails true
param *.visualizer.*.mobilityVisualizer.animationSpeed 1
param *.visualizer.*.packetDropVisualizer.displayPacketDrops false
param *.visualizer.*.packetDropVisualizer.labelFormat "\"%n/reason: %r\""
param *.visualizer.*.packetDropVisualizer.fadeOutTime 10s
param **.constraintAreaMinX 0m
param **.constraintAreaMinY 0m
param **.constraintAreaMinZ 40m
param **.constraintAreaMaxX 2500m
param **.constraintAreaMaxY 2000m
param **.constraintAreaMaxZ 200m
param *.visualizer.*.mediumVisualizer.signalPropagationAnimationSpeed 500/3e8
param *.visualizer.*.mediumVisualizer.signalTransmissionAnimationSpeed 50000/3e8
param *.visualizer.*.mediumVisualizer.displaySignals false
param *.visualizer.*.mediumVisualizer.displayTransmissions false
param *.visualizer.*.mediumVisualizer.displayReceptions false
param *.visualizer.*.mediumVisualizer.transmissionPlacementPriority 10
param *.visualizer.*.mediumVisualizer.receptionPlacementPriority 10
param *.visualizer.*.mediumVisualizer.displaySignals false
param *.visualizer.*.mediumVisualizer.signalFadingDistance 50m
param *.visualizer.*.mediumVisualizer.signalRingSize 50m
param *.visualizer.osgVisualizer.mediumVisualizer.signalShape "\"both\""
param *.host[*].osgModel "\"3d/drone.ive.100.scale.0,0,90.rot\""
param *.host[*].mobility.typename "\"MassMobility\""
param *.host[*].mobility.changeInterval 1s
param *.host[*].mobility.initialMovementHeading "uniform(0deg, 360deg)"
param *.host[*].mobility.initialMovementElevation "uniform(-90deg, 90deg)"
param *.host[*].mobility.angleDelta uniform(-10deg,10deg)
param *.host[*].mobility.rotationAxisAngle uniform(-10deg,10deg)
param *.host[*].mobility.speed uniform(10mps,20mps)
param *.host[*].mobility.faceForward false
param *.attacker[*].mobility.typename "\"MassMobility\""
param *.attacker[*].mobility.changeInterval 1s
param *.attacker[*].mobility.initialMovementHeading "uniform(0deg, 360deg)"
param *.attacker[*].mobility.initialMovementElevation "uniform(-90deg, 90deg)"
param *.attacker[*].mobility.angleDelta uniform(-10deg,10deg)
param *.attacker[*].mobility.rotationAxisAngle uniform(-10deg,10deg)
param *.attacker[*].mobility.speed uniform(10mps,20mps)
param *.attacker[*].mobility.faceForward false
param *.attacker*.wlan[0].typename "\"AckingWirelessInterface\""
param *.attacker*.wlan[0].radio.transmitter.communicationRange 400m
param *.attacker*.wlan[0].radio.displayCommunicationRange true

vector 0 FanetSecureSybil.host[0].wlan[0].radio radioMode:vector ETV
attr interpolationmode sample-hold
attr source radioModeChanged
attr title "Radio mode, vector"
vector 1 FanetSecureSybil.host[1].wlan[0].radio radioMode:vector ETV
attr interpolationmode sample-hold
attr source radioModeChanged
attr title "Radio mode, vector"
vector 2 FanetSecureSybil.host[0].wlan[0].radio receptionState:vector ETV
attr interpolationmode sample-hold
attr source receptionStateChanged
attr title "Radio reception state, vector"
vector 3 FanetSecureSybil.host[0].wlan[0].radio transmissionState:vector ETV
attr interpolationmode sample-hold
attr source transmissionStateChanged
attr title "Radio transmission state, vector"
vector 4 FanetSecureSybil.host[1].wlan[0].radio receptionState:vector ETV
attr interpolationmode sample-hold
attr source receptionStateChanged
attr title "Radio reception state, vector"
vector 5 FanetSecureSybil.host[1].wlan[0].radio transmissionState:vector ETV
attr interpolationmode sample-hold
attr source transmissionStateChanged
attr title "Radio transmission state, vector"
vector 6 FanetSecureSybil.host[0].wlan[0].mac rcvdPkFromHl:vector(packetBytes) ETV
attr interpolationmode none
attr source packetReceivedFromUpper
attr title "packets received from higher layer, vector(packetBytes)"
vector 7 FanetSecureSybil.host[0].wlan[0].mac.queue packetPushed:vector(packetBytes) ETV
attr interpolationmode none
attr title "packet pushed, vector(packetBytes)"
vector 8 FanetSecureSybil.host[0].wlan[0].mac.queue queueLength:vector ETV
attr interpolationmode sample-hold
attr source "count(packetPushed) - count(packetPopped) - count(packetRemoved) - count(packetDropped)"
attr title "queue length, vector"
vector 9 FanetSecureSybil.host[0].wlan[0].mac.queue packetPopped:vector(packetBytes) ETV
attr interpolationmode none
attr title "packet popped, vector(packetBytes)"
vector 10 FanetSecureSybil.host[0].wlan[0].mac.queue queueingTime:vector ETV
attr interpolationmode none
attr source queueingTime(packetPopped)
attr title "queueing times, vector"
attr unit s
vector 11 FanetSecureSybil.host[0].wlan[0].mac sentDownPk:vector(packetBytes) ETV
attr interpolationmode none
attr source packetSentToLower
attr title "packets sent to lower layer, vector(packetBytes)"
vector 12 FanetSecureSybil.host[1].wlan[0].mac rcvdPkFromLl:vector(packetBytes) ETV
attr interpolationmode none
attr source packetReceivedFromLower
attr title "packets received from lower layer, vector(packetBytes)"
vector 13 FanetSecureSybil.host[1].wlan[0].mac passedUpPk:vector(packetBytes) ETV
attr interpolationmode none
attr source packetSentToUpper
attr title "packets passed to higher layer, vector(packetBytes)"
vector 14 FanetSecureSybil.host[1].wlan[0].mac rcvdPkFromHl:vector(packetBytes) ETV
attr interpolationmode none
attr source packetReceivedFromUpper
attr title "packets received from higher layer, vector(packetBytes)"
vector 15 FanetSecureSybil.host[1].wlan[0].mac.queue packetPushed:vector(packetBytes) ETV
attr interpolationmode none
attr title "packet pushed, vector(packetBytes)"
vector 16 FanetSecureSybil.host[1].wlan[0].mac.queue queueLength:vector ETV
attr interpolationmode sample-hold
attr source "count(packetPushed) - count(packetPopped) - count(packetRemoved) - count(packetDropped)"
attr title "queue length, vector"
vector 17 FanetSecureSybil.host[1].wlan[0].mac.queue packetPopped:vector(packetBytes) ETV
attr interpolationmode none
attr title "packet popped, vector(packetBytes)"
vector 18 FanetSecureSybil.host[1].wlan[0].mac.queue queueingTime:vector ETV
attr interpolationmode none
attr source queueingTime(packetPopped)
attr title "queueing times, vector"
attr unit s
vector 19 FanetSecureSybil.host[1].wlan[0].mac sentDownPk:vector(packetBytes) ETV
attr interpolationmode none
attr source packetSentToLower
attr title "packets sent to lower layer, vector(packetBytes)"
0	0	0	0
0	0	0	0
0	0	0	4
1	0	0	0
1	0	0	0
1	0	0	4
2	0	0	1
3	0	0	1
3	215	10.488135023043	2
3	217	10.48818768971	1
4	0	0	1
4	216	10.488139748612	3
4	218	10.488192415279	1
5	0	0	1
5	236	10.928446163889	2
6	214	10.488135023043	130
7	214	10.488135023043	130
8	214	10.488135023043	1
8	214	10.488135023043	0
9	214	10.488135023043	130
10	214	10.488135023043	0
11	214	10.488135023043	146
12	219	10.488192415279	146
13	219	10.488192415279	130
14	235	10.928446163889	130
15	235	10.928446163889	130
16	235	10.928446163889	1
16	235	10.928446163889	0
17	235	10.928446163889	130
18	235	10.928446163889	0
19	235	10.928446163889	146
vector 20 FanetSecureSybil.host[0].wlan[0].mac rcvdPkFromLl:vector(packetBytes) ETV
attr interpolationmode none
attr source packetReceivedFromLower
attr title "packets received from lower layer, vector(packetBytes)"
vector 21 FanetSecureSybil.host[0].wlan[0].mac passedUpPk:vector(packetBytes) ETV
attr interpolationmode none
attr source packetSentToUpper
attr title "packets passed to higher layer, vector(packetBytes)"
vector 22 FanetSecureSybil.host[0].app[0] packetSent:vector(packetBytes) ETV
attr interpolationmode none
attr source packetSent
attr title "packets sent, vector(packetBytes)"
vector 23 FanetSecureSybil.host[0].udp packetSent:vector(packetBytes) ETV
attr interpolationmode none
attr source packetSent
attr title "packets sent, vector(packetBytes)"
vector 24 FanetSecureSybil.host[0].app[0] throughput:vector ETV
attr source throughput(packetReceived)
attr title "throughput, vector"
attr unit bps
vector 25 FanetSecureSybil.host[1].app[0] throughput:vector ETV
attr source throughput(packetReceived)
attr title "throughput, vector"
attr unit bps
2	237	10.928450906054	3
2	239	10.928503572721	1
2	573	24.371108152008	3
2	575	24.371160818675	1
2	949	38.942659667621	3
2	951	38.942712334288	1
2	1217	50.063616845118	3
2	1219	50.063669511785	1
2	1503	61.769995614695	3
2	1505	61.770048281362	1
2	1798	73.301078724404	3
2	1800	73.301131391071	1
2	2060	84.529539293896	3
2	2062	84.529591960563	1
2	2218	90.731504628773	3
2	2220	90.73155729544	1
2	2373	96.372979345231	3
2	2375	96.373032011898	1
2	2595	104.558668563974	3
2	2597	104.558721230641	1
2	2951	119.180553192697	3
2	2953	119.180605859364	1
2	3308	132.997905993745	3
2	3310	132.997958660412	1
2	3569	143.516067937251	3
2	3571	143.516120603918	1
2	3809	152.995329174112	3
2	3811	152.995381840779	1
2	4037	162.109296680118	3
2	4039	162.109349346785	1
2	4338	174.409202820156	3
2	4340	174.409255486823	1
2	4501	181.056144668727	3
2	4503	181.056197335394	1
2	4857	195.398285430276	3
2	4859	195.398338096943	1
2	5164	207.361721017469	3
2	5166	207.361773684136	1
2	5383	216.196360362962	3
2	5385	216.196413029629	1
2	5739	230.724277197299	3
2	5741	230.724329863966	1
2	6099	244.362833239898	3
2	6101	244.362885906565	1
2	6455	258.658126445977	3
2	6457	258.658179112644	1
2	6647	266.588329374972	3
2	6649	266.588382041639	1
2	6805	273.069738052563	3
2	6807	273.06979071923	1
2	7066	283.043652005019	3
2	7068	283.043704671686	1
2	7311	291.375103773534	3
2	7313	291.375156440201	1
2	7461	296.928847098039	3
2	7463	296.928899764706	1
2	7603	302.792617063883	3
2	7605	302.79266973055	1
2	7830	311.530748651259	3
2	7832	311.530801317926	1
2	8077	321.438935067783	3
2	8079	321.43898773445	1
2	8245	327.877228896607	3
2	8247	327.877281563274	1
2	8507	338.666453170889	3
2	8509	338.666505837556	1
2	8778	349.468424629353	3
2	8780	349.46847729602	1
2	9054	360.685209549847	3
2	9056	360.685262216514	1
2	9377	373.107589332485	3
2	9379	373.107641999152	1
2	9668	384.605909086253	3
2	9670	384.60596175292	1
2	9943	396.006150363081	3
2	9945	396.006203029748	1
2	10235	408.071897221781	3
2	10237	408.071949888448	1
2	10580	422.121380646547	3
2	10582	422.121433313214	1
2	10758	428.449530731902	3
2	10760	428.449583398569	1
2	10929	435.464707872397	3
2	10931	435.464760539064	1
2	11064	440.710907330646	3
2	11066	440.710959997313	1
2	11237	447.234454151379	3
2	11239	447.234506818046	1
2	11425	454.982689612352	3
2	11427	454.982742279019	1
2	11625	462.69921704329	3
2	11627	462.699269709957	1
2	11831	471.034291422402	3
2	11833	471.034344089069	1
2	12092	481.335180313253	3
2	12094	481.33523297992	1
2	12239	486.580454145528	3
2	12241	486.580506812195	1
3	521	22.640028672759	2
3	523	22.640081339426	1
3	679	28.511321642437	2
3	681	28.511374309104	1
3	912	38.126115270426	2
3	914	38.126167937093	1
3	1103	45.291618837511	2
3	1105	45.291671504178	1
3	1260	51.284422352912	2
3	1262	51.284475019579	1
3	1525	62.362729019953	2
3	1527	62.36278168662	1
3	1779	73.181232342033	2
3	1781	73.1812850087	1
3	2109	86.391164651143	2
3	2111	86.39121731781	1
3	2356	96.200100013523	2
3	2358	96.20015268019	1
3	2521	102.031224879904	2
3	2523	102.031277546571	1
3	2747	110.729305837306	2
3	2749	110.729358503973	1
3	3041	122.529861566148	2
3	3043	122.529914232815	1
3	3216	129.835191797468	2
3	3218	129.835244464135	1
3	3426	137.735967896882	2
3	3428	137.736020563549	1
3	3770	151.701433879792	2
3	3772	151.701486546459	1
3	4125	165.18151615281	2
3	4127	165.181568819477	1
3	4356	174.816025914628	2
3	4358	174.816078581295	1
3	4599	184.816288852602	2
3	4601	184.816341519269	1
3	4973	199.461186509583	2
3	4975	199.46123917625	1
3	5266	211.608155837752	2
3	5268	211.608208504419	1
3	5519	221.805267760068	2
3	5521	221.805320426735	1
3	5865	235.608243804894	2
3	5867	235.608296471561	1
3	6221	249.012529158502	2
3	6223	249.012581825169	1
3	6492	259.817000464539	2
3	6494	259.817053131206	1
3	6661	266.760422659575	2
3	6663	266.760475326242	1
3	6972	279.564689151014	2
3	6974	279.564741817681	1
3	7265	290.256796716715	2
3	7267	290.256849383382	1
3	7632	303.552819138861	2
3	7634	303.552871805528	1
3	7757	308.649700875397	2
3	7759	308.649753542064	1
3	7896	314.095823848623	2
3	7898	314.09587651529	1
3	8104	322.163924851923	2
3	8106	322.16397751859	1
3	8303	329.93988579605	2
3	8305	329.939938462717	1
3	8643	343.760299945718	2
3	8645	343.760352612385	1
3	8901	354.670141576792	2
3	8903	354.670194243459	1
3	9235	367.825379823337	2
3	9237	367.825432490004	1
3	9596	382.278395157776	2
3	9598	382.278447824443	1
3	9975	397.181845218877	2
3	9977	397.181897885544	1
3	10281	409.564111027869	2
3	10283	409.564163694536	1
3	10449	416.979567906822	2
3	10451	416.979620573489	1
3	10643	424.313770462762	2
3	10645	424.313823129429	1
3	10835	431.691842880103	2
3	10837	431.69189554677	1
3	11181	445.364736935592	2
3	11183	445.364789602259	1
3	11329	451.08908139868	2
3	11331	451.089134065347	1
3	11510	458.244369544557	2
3	11512	458.244422211224	1
3	11866	472.124806602954	2
3	11868	472.124859269621	1
3	12178	484.230090584609	2
3	12180	484.230143251276	1
3	12454	495.452401197984	2
3	12456	495.452453864651	1
4	522	22.640033214586	3
4	524	22.640085881253	1
4	680	28.511326145647	3
4	682	28.511378812314	1
4	913	38.126119795802	3
4	915	38.126172462469	1
4	1104	45.291623325468	3
4	1106	45.291675992135	1
4	1261	51.284426829511	3
4	1263	51.284479496178	1
4	1526	62.362733524869	3
4	1528	62.362786191536	1
4	1780	73.181236741128	3
4	1782	73.181289407795	1
4	2110	86.391168586893	3
4	2112	86.39122125356	1
4	2357	96.200103446076	3
4	2359	96.200156112743	1
4	2522	102.031228050298	3
4	2524	102.031280716965	1
4	2748	110.729308614816	3
4	2750	110.729361281483	1
4	3042	122.529863634586	3
4	3044	122.529916301253	1
4	3217	129.835193456874	3
4	3219	129.835246123541	1
4	3427	137.735969123288	3
4	3429	137.736021789955	1
4	3771	151.701434282714	3
4	3773	151.701486949381	1
4	4126	165.181516918939	3
4	4128	165.181569585606	1
4	4357	174.816027082302	3
4	4359	174.816079748969	1
4	4600	184.81629049337	3
4	4602	184.816343160037	1
4	4974	199.461188932199	3
4	4976	199.461241598866	1
4	5267	211.608158966524	3
4	5269	211.608211633191	1
4	5520	221.805271255006	3
4	5522	221.805323921673	1
4	5866	235.608247436887	3
4	5868	235.608300103554	1
4	6222	249.012532781214	3
4	6224	249.012585447881	1
4	6493	259.817004138481	3
4	6495	259.817056805148	1
4	6662	266.760426405245	3
4	6664	266.760479071912	1
4	6973	279.564693138513	3
4	6975	279.56474580518	1
4	7266	290.256800997841	3
4	7268	290.256853664508	1
4	7633	303.552823775458	3
4	7635	303.552876442125	1
4	7758	308.649705620468	3
4	7760	308.649758287135	1
4	7897	314.095828719571	3
4	7899	314.095881386238	1
4	8105	322.163929929255	3
4	8107	322.163982595922	1
4	8304	329.939891083663	3
4	8306	329.93994375033	1
4	8644	343.760305733491	3
4	8646	343.760358400158	1
4	8902	354.670147602346	3
4	8904	354.670200269013	1
4	9236	367.825385804495	3
4	9238	367.825438471162	1
4	9597	382.278401167715	3
4	9599	382.278453834382	1
4	9976	397.181850960828	3
4	9978	397.181903627495	1
4	10282	409.564116543241	3
4	10284	409.564169209908	1
4	10450	416.97957339633	3
4	10452	416.979626062997	1
4	10644	424.313776038269	3
4	10646	424.313828704936	1
4	10836	431.691848503546	3
4	10838	431.691901170213	1
4	11182	445.364742333392	3
4	11184	445.364795000059	1
4	11330	451.089086600881	3
4	11332	451.089139267548	1
4	11511	458.244374534198	3
4	11513	458.244427200865	1
4	11867	472.124811084895	3
4	11869	472.124863751562	1
4	12179	484.230094570044	3
4	12181	484.230147236711	1
4	12455	495.452405001906	3
4	12457	495.452457668573	1
5	238	10.928498830556	1
5	572	24.37110360479	2
5	574	24.371156271457	1
5	948	38.942655147985	2
5	950	38.942707814652	1
5	1216	50.063612372615	2
5	1218	50.063665039282	1
5	1502	61.769991109614	2
5	1504	61.770043776281	1
5	1797	73.30107433023	2
5	1799	73.301126996897	1
5	2059	84.529535262846	2
5	2061	84.529587929513	1
5	2217	90.731500908733	2
5	2219	90.7315535754	1
5	2372	96.372975918931	2
5	2374	96.373028585598	1
5	2594	104.558665468358	2
5	2596	104.558718135025	1
5	2950	119.180550917518	2
5	2952	119.180603584185	1
5	3307	132.997904513032	2
5	3309	132.997957179699	1
5	3568	143.516067063902	2
5	3570	143.516119730569	1
5	3808	152.995328800753	2
5	3810	152.99538146742	1
5	4036	162.109296044801	2
5	4038	162.109348711468	1
5	4337	174.409201662057	2
5	4339	174.409254328724	1
5	4500	181.056143227034	2
5	4502	181.056195893701	1
5	4856	195.398283244577	2
5	4858	195.398335911244	1
5	5163	207.361718101893	2
5	5165	207.36177076856	1
5	5382	216.196357014124	2
5	5384	216.196409680791	1
5	5738	230.724273596425	2
5	5740	230.724326263092	1
5	6098	244.362829609309	2
5	6100	244.362882275976	1
5	6454	258.658122790512	2
5	6456	258.658175457179	1
5	6646	266.588325630874	2
5	6648	266.588378297541	1
5	6804	273.069734231104	2
5	6806	273.069786897771	1
5	7065	283.043647906744	2
5	7067	283.043700573411	1
5	7310	291.375099469443	2
5	7312	291.37515213611	1
5	7460	296.928842638155	2
5	7462	296.928895304822	1
5	7602	302.792612444611	2
5	7604	302.792665111278	1
5	7829	311.530743839686	2
5	7831	311.530796506353	1
5	8076	321.438930006699	2
5	8078	321.438982673366	1
5	8244	327.877223680263	2
5	8246	327.87727634693	1
5	8506	338.666447554716	2
5	8508	338.666500221383	1
5	8777	349.468418632169	2
5	8779	349.468471298836	1
5	9053	360.685203538743	2
5	9055	360.68525620541	1
5	9376	373.107583315578	2
5	9378	373.107635982245	1
5	9667	384.605903057382	2
5	9669	384.605955724049	1
5	9942	396.006144608837	2
5	9944	396.006197275504	1
5	10234	408.071891684086	2
5	10236	408.071944350753	1
5	10579	422.121375105345	2
5	10581	422.121427772012	1
5	10757	428.4495251067	2
5	10759	428.449577773367	1
5	10928	435.464702232277	2
5	10930	435.464754898944	1
5	11063	440.710901797285	2
5	11065	440.710954463952	1
5	11236	447.234448825476	2
5	11238	447.234501492143	1
5	11424	454.982684531716	2
5	11426	454.982737198383	1
5	11624	462.699212229346	2
5	11626	462.699264896013	1
5	11830	471.034286906944	2
5	11832	471.034339573611	1
5	12091	481.335176220165	2
5	12093	481.335228886832	1
5	12238	486.580450222829	2
5	12240	486.580502889496	1
6	520	22.640028672759	130
6	678	28.511321642437	130
6	911	38.126115270426	130
6	1102	45.291618837511	130
6	1259	51.284422352912	130
6	1524	62.362729019953	130
6	1778	73.181232342033	130
6	2108	86.391164651143	130
6	2355	96.200100013523	130
6	2520	102.031224879904	130
6	2746	110.729305837306	130
6	3040	122.529861566148	130
6	3215	129.835191797468	130
6	3425	137.735967896882	130
6	3769	151.701433879792	130
6	4124	165.18151615281	130
6	4355	174.816025914628	130
6	4598	184.816288852602	130
6	4972	199.461186509583	130
6	5265	211.608155837752	130
6	5518	221.805267760068	130
6	5864	235.608243804894	130
6	6220	249.012529158502	130
6	6491	259.817000464539	130
6	6660	266.760422659575	130
6	6971	279.564689151014	130
6	7264	290.256796716715	130
6	7631	303.552819138861	130
6	7756	308.649700875397	130
6	7895	314.095823848623	130
6	8103	322.163924851923	130
6	8302	329.93988579605	130
6	8642	343.760299945718	130
6	8900	354.670141576792	130
6	9234	367.825379823337	130
6	9595	382.278395157776	130
6	9974	397.181845218877	130
6	10280	409.564111027869	130
6	10448	416.979567906822	130
6	10642	424.313770462762	130
6	10834	431.691842880103	130
6	11180	445.364736935592	130
6	11328	451.08908139868	130
6	11509	458.244369544557	130
6	11865	472.124806602954	130
6	12177	484.230090584609	130
6	12453	495.452401197984	130
7	520	22.640028672759	130
7	678	28.511321642437	130
7	911	38.126115270426	130
7	1102	45.291618837511	130
7	1259	51.284422352912	130
7	1524	62.362729019953	130
7	1778	73.181232342033	130
7	2108	86.391164651143	130
7	2355	96.200100013523	130
7	2520	102.031224879904	130
7	2746	110.729305837306	130
7	3040	122.529861566148	130
7	3215	129.835191797468	130
7	3425	137.735967896882	130
7	3769	151.701433879792	130
7	4124	165.18151615281	130
7	4355	174.816025914628	130
7	4598	184.816288852602	130
7	4972	199.461186509583	130
7	5265	211.608155837752	130
7	5518	221.805267760068	130
7	5864	235.608243804894	130
7	6220	249.012529158502	130
7	6491	259.817000464539	130
7	6660	266.760422659575	130
7	6971	279.564689151014	130
7	7264	290.256796716715	130
7	7631	303.552819138861	130
7	7756	308.649700875397	130
7	7895	314.095823848623	130
7	8103	322.163924851923	130
7	8302	329.93988579605	130
7	8642	343.760299945718	130
7	8900	354.670141576792	130
7	9234	367.825379823337	130
7	9595	382.278395157776	130
7	9974	397.181845218877	130
7	10280	409.564111027869	130
7	10448	416.979567906822	130
7	10642	424.313770462762	130
7	10834	431.691842880103	130
7	11180	445.364736935592	130
7	11328	451.08908139868	130
7	11509	458.244369544557	130
7	11865	472.124806602954	130
7	12177	484.230090584609	130
7	12453	495.452401197984	130
8	520	22.640028672759	1
8	520	22.640028672759	0
8	678	28.511321642437	1
8	678	28.511321642437	0
8	911	38.126115270426	1
8	911	38.126115270426	0
8	1102	45.291618837511	1
8	1102	45.291618837511	0
8	1259	51.284422352912	1
8	1259	51.284422352912	0
8	1524	62.362729019953	1
8	1524	62.362729019953	0
8	1778	73.181232342033	1
8	1778	73.181232342033	0
8	2108	86.391164651143	1
8	2108	86.391164651143	0
8	2355	96.200100013523	1
8	2355	96.200100013523	0
8	2520	102.031224879904	1
8	2520	102.031224879904	0
8	2746	110.729305837306	1
8	2746	110.729305837306	0
8	3040	122.529861566148	1
8	3040	122.529861566148	0
8	3215	129.835191797468	1
8	3215	129.835191797468	0
8	3425	137.735967896882	1
8	3425	137.735967896882	0
8	3769	151.701433879792	1
8	3769	151.701433879792	0
8	4124	165.18151615281	1
8	4124	165.18151615281	0
8	4355	174.816025914628	1
8	4355	174.816025914628	0
8	4598	184.816288852602	1
8	4598	184.816288852602	0
8	4972	199.461186509583	1
8	4972	199.461186509583	0
8	5265	211.608155837752	1
8	5265	211.608155837752	0
8	5518	221.805267760068	1
8	5518	221.805267760068	0
8	5864	235.608243804894	1
8	5864	235.608243804894	0
8	6220	249.012529158502	1
8	6220	249.012529158502	0
8	6491	259.817000464539	1
8	6491	259.817000464539	0
8	6660	266.760422659575	1
8	6660	266.760422659575	0
8	6971	279.564689151014	1
8	6971	279.564689151014	0
8	7264	290.256796716715	1
8	7264	290.256796716715	0
8	7631	303.552819138861	1
8	7631	303.552819138861	0
8	7756	308.649700875397	1
8	7756	308.649700875397	0
8	7895	314.095823848623	1
8	7895	314.095823848623	0
8	8103	322.163924851923	1
8	8103	322.163924851923	0
8	8302	329.93988579605	1
8	8302	329.93988579605	0
8	8642	343.760299945718	1
8	8642	343.760299945718	0
8	8900	354.670141576792	1
8	8900	354.670141576792	0
8	9234	367.825379823337	1
8	9234	367.825379823337	0
8	9595	382.278395157776	1
8	9595	382.278395157776	0
8	9974	397.181845218877	1
8	9974	397.181845218877	0
8	10280	409.564111027869	1
8	10280	409.564111027869	0
8	10448	416.979567906822	1
8	10448	416.979567906822	0
8	10642	424.313770462762	1
8	10642	424.313770462762	0
8	10834	431.691842880103	1
8	10834	431.691842880103	0
8	11180	445.364736935592	1
8	11180	445.364736935592	0
8	11328	451.08908139868	1
8	11328	451.08908139868	0
8	11509	458.244369544557	1
8	11509	458.244369544557	0
8	11865	472.124806602954	1
8	11865	472.124806602954	0
8	12177	484.230090584609	1
8	12177	484.230090584609	0
8	12453	495.452401197984	1
8	12453	495.452401197984	0
9	520	22.640028672759	130
9	678	28.511321642437	130
9	911	38.126115270426	130
9	1102	45.291618837511	130
9	1259	51.284422352912	130
9	1524	62.362729019953	130
9	1778	73.181232342033	130
9	2108	86.391164651143	130
9	2355	96.200100013523	130
9	2520	102.031224879904	130
9	2746	110.729305837306	130
9	3040	122.529861566148	130
9	3215	129.835191797468	130
9	3425	137.735967896882	130
9	3769	151.701433879792	130
9	4124	165.18151615281	130
9	4355	174.816025914628	130
9	4598	184.816288852602	130
9	4972	199.461186509583	130
9	5265	211.608155837752	130
9	5518	221.805267760068	130
9	5864	235.608243804894	130
9	6220	249.012529158502	130
9	6491	259.817000464539	130
9	6660	266.760422659575	130
9	6971	279.564689151014	130
9	7264	290.256796716715	130
9	7631	303.552819138861	130
9	7756	308.649700875397	130
9	7895	314.095823848623	130
9	8103	322.163924851923	130
9	8302	329.93988579605	130
9	8642	343.760299945718	130
9	8900	354.670141576792	130
9	9234	367.825379823337	130
9	9595	382.278395157776	130
9	9974	397.181845218877	130
9	10280	409.564111027869	130
9	10448	416.979567906822	130
9	10642	424.313770462762	130
9	10834	431.691842880103	130
9	11180	445.364736935592	130
9	11328	451.08908139868	130
9	11509	458.244369544557	130
9	11865	472.124806602954	130
9	12177	484.230090584609	130
9	12453	495.452401197984	130
10	520	22.640028672759	0
10	678	28.511321642437	0
10	911	38.126115270426	0
10	1102	45.291618837511	0
10	1259	51.284422352912	0
10	1524	62.362729019953	0
10	1778	73.181232342033	0
10	2108	86.391164651143	0
10	2355	96.200100013523	0
10	2520	102.031224879904	0
10	2746	110.729305837306	0
10	3040	122.529861566148	0
10	3215	129.835191797468	0
10	3425	137.735967896882	0
10	3769	151.701433879792	0
10	4124	165.18151615281	0
10	4355	174.816025914628	0
10	4598	184.816288852602	0
10	4972	199.461186509583	0
10	5265	211.608155837752	0
10	5518	221.805267760068	0
10	5864	235.608243804894	0
10	6220	249.012529158502	0
10	6491	259.817000464539	0
10	6660	266.760422659575	0
10	6971	279.564689151014	0
10	7264	290.256796716715	0
10	7631	303.552819138861	0
10	7756	308.649700875397	0
10	7895	314.095823848623	0
10	8103	322.163924851923	0
10	8302	329.93988579605	0
10	8642	343.760299945718	0
10	8900	354.670141576792	0
10	9234	367.825379823337	0
10	9595	382.278395157776	0
10	9974	397.181845218877	0
10	10280	409.564111027869	0
10	10448	416.979567906822	0
10	10642	424.313770462762	0
10	10834	431.691842880103	0
10	11180	445.364736935592	0
10	11328	451.08908139868	0
10	11509	458.244369544557	0
10	11865	472.124806602954	0
10	12177	484.230090584609	0
10	12453	495.452401197984	0
11	520	22.640028672759	146
11	678	28.511321642437	146
11	911	38.126115270426	146
11	1102	45.291618837511	146
11	1259	51.284422352912	146
11	1524	62.362729019953	146
11	1778	73.181232342033	146
11	2108	86.391164651143	146
11	2355	96.200100013523	146
11	2520	102.031224879904	146
11	2746	110.729305837306	146
11	3040	122.529861566148	146
11	3215	129.835191797468	146
11	3425	137.735967896882	146
11	3769	151.701433879792	146
11	4124	165.18151615281	146
11	4355	174.816025914628	146
11	4598	184.816288852602	146
11	4972	199.461186509583	146
11	5265	211.608155837752	146
11	5518	221.805267760068	146
11	5864	235.608243804894	146
11	6220	249.012529158502	146
11	6491	259.817000464539	146
11	6660	266.760422659575	146
11	6971	279.564689151014	146
11	7264	290.256796716715	146
11	7631	303.552819138861	146
11	7756	308.649700875397	146
11	7895	314.095823848623	146
11	8103	322.163924851923	146
11	8302	329.93988579605	146
11	8642	343.760299945718	146
11	8900	354.670141576792	146
11	9234	367.825379823337	146
11	9595	382.278395157776	146
11	9974	397.181845218877	146
11	10280	409.564111027869	146
11	10448	416.979567906822	146
11	10642	424.313770462762	146
11	10834	431.691842880103	146
11	11180	445.364736935592	146
11	11328	451.08908139868	146
11	11509	458.244369544557	146
11	11865	472.124806602954	146
11	12177	484.230090584609	146
11	12453	495.452401197984	146
12	525	22.640085881253	146
12	683	28.511378812314	146
12	916	38.126172462469	146
12	1107	45.291675992135	146
12	1264	51.284479496178	146
12	1529	62.362786191536	146
12	1783	73.181289407795	146
12	2113	86.39122125356	146
12	2360	96.200156112743	146
12	2525	102.031280716965	146
12	2751	110.729361281483	146
12	3045	122.529916301253	146
12	3220	129.835246123541	146
12	3430	137.736021789955	146
12	3774	151.701486949381	146
12	4129	165.181569585606	146
12	4360	174.816079748969	146
12	4603	184.816343160037	146
12	4977	199.461241598866	146
12	5270	211.608211633191	146
12	5523	221.805323921673	146
12	5869	235.608300103554	146
12	6225	249.012585447881	146
12	6496	259.817056805148	146
12	6665	266.760479071912	146
12	6976	279.56474580518	146
12	7269	290.256853664508	146
12	7636	303.552876442125	146
12	7761	308.649758287135	146
12	7900	314.095881386238	146
12	8108	322.163982595922	146
12	8307	329.93994375033	146
12	8647	343.760358400158	146
12	8905	354.670200269013	146
12	9239	367.825438471162	146
12	9600	382.278453834382	146
12	9979	397.181903627495	146
12	10285	409.564169209908	146
12	10453	416.979626062997	146
12	10647	424.313828704936	146
12	10839	431.691901170213	146
12	11185	445.364795000059	146
12	11333	451.089139267548	146
12	11514	458.244427200865	146
12	11870	472.124863751562	146
12	12182	484.230147236711	146
12	12458	495.452457668573	146
13	525	22.640085881253	130
13	683	28.511378812314	130
13	916	38.126172462469	130
13	1107	45.291675992135	130
13	1264	51.284479496178	130
13	1529	62.362786191536	130
13	1783	73.181289407795	130
13	2113	86.39122125356	130
13	2360	96.200156112743	130
13	2525	102.031280716965	130
13	2751	110.729361281483	130
13	3045	122.529916301253	130
13	3220	129.835246123541	130
13	3430	137.736021789955	130
13	3774	151.701486949381	130
13	4129	165.181569585606	130
13	4360	174.816079748969	130
13	4603	184.816343160037	130
13	4977	199.461241598866	130
13	5270	211.608211633191	130
13	5523	221.805323921673	130
13	5869	235.608300103554	130
13	6225	249.012585447881	130
13	6496	259.817056805148	130
13	6665	266.760479071912	130
13	6976	279.56474580518	130
13	7269	290.256853664508	130
13	7636	303.552876442125	130
13	7761	308.649758287135	130
13	7900	314.095881386238	130
13	8108	322.163982595922	130
13	8307	329.93994375033	130
13	8647	343.760358400158	130
13	8905	354.670200269013	130
13	9239	367.825438471162	130
13	9600	382.278453834382	130
13	9979	397.181903627495	130
13	10285	409.564169209908	130
13	10453	416.979626062997	130
13	10647	424.313828704936	130
13	10839	431.691901170213	130
13	11185	445.364795000059	130
13	11333	451.089139267548	130
13	11514	458.244427200865	130
13	11870	472.124863751562	130
13	12182	484.230147236711	130
13	12458	495.452457668573	130
14	571	24.37110360479	130
14	947	38.942655147985	130
14	1215	50.063612372615	130
14	1501	61.769991109614	130
14	1796	73.30107433023	130
14	2058	84.529535262846	130
14	2216	90.731500908733	130
14	2371	96.372975918931	130
14	2593	104.558665468358	130
14	2949	119.180550917518	130
14	3306	132.997904513032	130
14	3567	143.516067063902	130
14	3807	152.995328800753	130
14	4035	162.109296044801	130
14	4336	174.409201662057	130
14	4499	181.056143227034	130
14	4855	195.398283244577	130
14	5162	207.361718101893	130
14	5381	216.196357014124	130
14	5737	230.724273596425	130
14	6097	244.362829609309	130
14	6453	258.658122790512	130
14	6645	266.588325630874	130
14	6803	273.069734231104	130
14	7064	283.043647906744	130
14	7309	291.375099469443	130
14	7459	296.928842638155	130
14	7601	302.792612444611	130
14	7828	311.530743839686	130
14	8075	321.438930006699	130
14	8243	327.877223680263	130
14	8505	338.666447554716	130
14	8776	349.468418632169	130
14	9052	360.685203538743	130
14	9375	373.107583315578	130
14	9666	384.605903057382	130
14	9941	396.006144608837	130
14	10233	408.071891684086	130
14	10578	422.121375105345	130
14	10756	428.4495251067	130
14	10927	435.464702232277	130
14	11062	440.710901797285	130
14	11235	447.234448825476	130
14	11423	454.982684531716	130
14	11623	462.699212229346	130
14	11829	471.034286906944	130
14	12090	481.335176220165	130
14	12237	486.580450222829	130
15	571	24.37110360479	130
15	947	38.942655147985	130
15	1215	50.063612372615	130
15	1501	61.769991109614	130
15	1796	73.30107433023	130
15	2058	84.529535262846	130
15	2216	90.731500908733	130
15	2371	96.372975918931	130
15	2593	104.558665468358	130
15	2949	119.180550917518	130
15	3306	132.997904513032	130
15	3567	143.516067063902	130
15	3807	152.995328800753	130
15	4035	162.109296044801	130
15	4336	174.409201662057	130
15	4499	181.056143227034	130
15	4855	195.398283244577	130
15	5162	207.361718101893	130
15	5381	216.196357014124	130
15	5737	230.724273596425	130
15	6097	244.362829609309	130
15	6453	258.658122790512	130
15	6645	266.588325630874	130
15	6803	273.069734231104	130
15	7064	283.043647906744	130
15	7309	291.375099469443	130
15	7459	296.928842638155	130
15	7601	302.792612444611	130
15	7828	311.530743839686	130
15	8075	321.438930006699	130
15	8243	327.877223680263	130
15	8505	338.666447554716	130
15	8776	349.468418632169	130
15	9052	360.685203538743	130
15	9375	373.107583315578	130
15	9666	384.605903057382	130
15	9941	396.006144608837	130
15	10233	408.071891684086	130
15	10578	422.121375105345	130
15	10756	428.4495251067	130
15	10927	435.464702232277	130
15	11062	440.710901797285	130
15	11235	447.234448825476	130
15	11423	454.982684531716	130
15	11623	462.699212229346	130
15	11829	471.034286906944	130
15	12090	481.335176220165	130
15	12237	486.580450222829	130
16	571	24.37110360479	1
16	571	24.37110360479	0
16	947	38.942655147985	1
16	947	38.942655147985	0
16	1215	50.063612372615	1
16	1215	50.063612372615	0
16	1501	61.769991109614	1
16	1501	61.769991109614	0
16	1796	73.30107433023	1
16	1796	73.30107433023	0
16	2058	84.529535262846	1
16	2058	84.529535262846	0
16	2216	90.731500908733	1
16	2216	90.731500908733	0
16	2371	96.372975918931	1
16	2371	96.372975918931	0
16	2593	104.558665468358	1
16	2593	104.558665468358	0
16	2949	119.180550917518	1
16	2949	119.180550917518	0
16	3306	132.997904513032	1
16	3306	132.997904513032	0
16	3567	143.516067063902	1
16	3567	143.516067063902	0
16	3807	152.995328800753	1
16	3807	152.995328800753	0
16	4035	162.109296044801	1
16	4035	162.109296044801	0
16	4336	174.409201662057	1
16	4336	174.409201662057	0
16	4499	181.056143227034	1
16	4499	181.056143227034	0
16	4855	195.398283244577	1
16	4855	195.398283244577	0
16	5162	207.361718101893	1
16	5162	207.361718101893	0
16	5381	216.196357014124	1
16	5381	216.196357014124	0
16	5737	230.724273596425	1
16	5737	230.724273596425	0
16	6097	244.362829609309	1
16	6097	244.362829609309	0
16	6453	258.658122790512	1
16	6453	258.658122790512	0
16	6645	266.588325630874	1
16	6645	266.588325630874	0
16	6803	273.069734231104	1
16	6803	273.069734231104	0
16	7064	283.043647906744	1
16	7064	283.043647906744	0
16	7309	291.375099469443	1
16	7309	291.375099469443	0
16	7459	296.928842638155	1
16	7459	296.928842638155	0
16	7601	302.792612444611	1
16	7601	302.792612444611	0
16	7828	311.530743839686	1
16	7828	311.530743839686	0
16	8075	321.438930006699	1
16	8075	321.438930006699	0
16	8243	327.877223680263	1
16	8243	327.877223680263	0
16	8505	338.666447554716	1
16	8505	338.666447554716	0
16	8776	349.468418632169	1
16	8776	349.468418632169	0
16	9052	360.685203538743	1
16	9052	360.685203538743	0
16	9375	373.107583315578	1
16	9375	373.107583315578	0
16	9666	384.605903057382	1
16	9666	384.605903057382	0
16	9941	396.006144608837	1
16	9941	396.006144608837	0
16	10233	408.071891684086	1
16	10233	408.071891684086	0
16	10578	422.121375105345	1
16	10578	422.121375105345	0
16	10756	428.4495251067	1
16	10756	428.4495251067	0
16	10927	435.464702232277	1
16	10927	435.464702232277	0
16	11062	440.710901797285	1
16	11062	440.710901797285	0
16	11235	447.234448825476	1
16	11235	447.234448825476	0
16	11423	454.982684531716	1
16	11423	454.982684531716	0
16	11623	462.699212229346	1
16	11623	462.699212229346	0
16	11829	471.034286906944	1
16	11829	471.034286906944	0
16	12090	481.335176220165	1
16	12090	481.335176220165	0
16	12237	486.580450222829	1
16	12237	486.580450222829	0
17	571	24.37110360479	130
17	947	38.942655147985	130
17	1215	50.063612372615	130
17	1501	61.769991109614	130
17	1796	73.30107433023	130
17	2058	84.529535262846	130
17	2216	90.731500908733	130
17	2371	96.372975918931	130
17	2593	104.558665468358	130
17	2949	119.180550917518	130
17	3306	132.997904513032	130
17	3567	143.516067063902	130
17	3807	152.995328800753	130
17	4035	162.109296044801	130
17	4336	174.409201662057	130
17	4499	181.056143227034	130
17	4855	195.398283244577	130
17	5162	207.361718101893	130
17	5381	216.196357014124	130
17	5737	230.724273596425	130
17	6097	244.362829609309	130
17	6453	258.658122790512	130
17	6645	266.588325630874	130
17	6803	273.069734231104	130
17	7064	283.043647906744	130
17	7309	291.375099469443	130
17	7459	296.928842638155	130
17	7601	302.792612444611	130
17	7828	311.530743839686	130
17	8075	321.438930006699	130
17	8243	327.877223680263	130
17	8505	338.666447554716	130
17	8776	349.468418632169	130
17	9052	360.685203538743	130
17	9375	373.107583315578	130
17	9666	384.605903057382	130
17	9941	396.006144608837	130
17	10233	408.071891684086	130
17	10578	422.121375105345	130
17	10756	428.4495251067	130
17	10927	435.464702232277	130
17	11062	440.710901797285	130
17	11235	447.234448825476	130
17	11423	454.982684531716	130
17	11623	462.699212229346	130
17	11829	471.034286906944	130
17	12090	481.335176220165	130
17	12237	486.580450222829	130
18	571	24.37110360479	0
18	947	38.942655147985	0
18	1215	50.063612372615	0
18	1501	61.769991109614	0
18	1796	73.30107433023	0
18	2058	84.529535262846	0
18	2216	90.731500908733	0
18	2371	96.372975918931	0
18	2593	104.558665468358	0
18	2949	119.180550917518	0
18	3306	132.997904513032	0
18	3567	143.516067063902	0
18	3807	152.995328800753	0
18	4035	162.109296044801	0
18	4336	174.409201662057	0
18	4499	181.056143227034	0
18	4855	195.398283244577	0
18	5162	207.361718101893	0
18	5381	216.196357014124	0
18	5737	230.724273596425	0
18	6097	244.362829609309	0
18	6453	258.658122790512	0
18	6645	266.588325630874	0
18	6803	273.069734231104	0
18	7064	283.043647906744	0
18	7309	291.375099469443	0
18	7459	296.928842638155	0
18	7601	302.792612444611	0
18	7828	311.530743839686	0
18	8075	321.438930006699	0
18	8243	327.877223680263	0
18	8505	338.666447554716	0
18	8776	349.468418632169	0
18	9052	360.685203538743	0
18	9375	373.107583315578	0
18	9666	384.605903057382	0
18	9941	396.006144608837	0
18	10233	408.071891684086	0
18	10578	422.121375105345	0
18	10756	428.4495251067	0
18	10927	435.464702232277	0
18	11062	440.710901797285	0
18	11235	447.234448825476	0
18	11423	454.982684531716	0
18	11623	462.699212229346	0
18	11829	471.034286906944	0
18	12090	481.335176220165	0
18	12237	486.580450222829	0
19	571	24.37110360479	146
19	947	38.942655147985	146
19	1215	50.063612372615	146
19	1501	61.769991109614	146
19	1796	73.30107433023	146
19	2058	84.529535262846	146
19	2216	90.731500908733	146
19	2371	96.372975918931	146
19	2593	104.558665468358	146
19	2949	119.180550917518	146
19	3306	132.997904513032	146
19	3567	143.516067063902	146
19	3807	152.995328800753	146
19	4035	162.109296044801	146
19	4336	174.409201662057	146
19	4499	181.056143227034	146
19	4855	195.398283244577	146
19	5162	207.361718101893	146
19	5381	216.196357014124	146
19	5737	230.724273596425	146
19	6097	244.362829609309	146
19	6453	258.658122790512	146
19	6645	266.588325630874	146
19	6803	273.069734231104	146
19	7064	283.043647906744	146
19	7309	291.375099469443	146
19	7459	296.928842638155	146
19	7601	302.792612444611	146
19	7828	311.530743839686	146
19	8075	321.438930006699	146
19	8243	327.877223680263	146
19	8505	338.666447554716	146
19	8776	349.468418632169	146
19	9052	360.685203538743	146
19	9375	373.107583315578	146
19	9666	384.605903057382	146
19	9941	396.006144608837	146
19	10233	408.071891684086	146
19	10578	422.121375105345	146
19	10756	428.4495251067	146
19	10927	435.464702232277	146
19	11062	440.710901797285	146
19	11235	447.234448825476	146
19	11423	454.982684531716	146
19	11623	462.699212229346	146
19	11829	471.034286906944	146
19	12090	481.335176220165	146
19	12237	486.580450222829	146
20	240	10.928503572721	146
20	576	24.371160818675	146
20	952	38.942712334288	146
20	1220	50.063669511785	146
20	1506	61.770048281362	146
20	1801	73.301131391071	146
20	2063	84.529591960563	146
20	2221	90.73155729544	146
20	2376	96.373032011898	146
20	2598	104.558721230641	146
20	2954	119.180605859364	146
20	3311	132.997958660412	146
20	3572	143.516120603918	146
20	3812	152.995381840779	146
20	4040	162.109349346785	146
20	4341	174.409255486823	146
20	4504	181.056197335394	146
20	4860	195.398338096943	146
20	5167	207.361773684136	146
20	5386	216.196413029629	146
20	5742	230.724329863966	146
20	6102	244.362885906565	146
20	6458	258.658179112644	146
20	6650	266.588382041639	146
20	6808	273.06979071923	146
20	7069	283.043704671686	146
20	7314	291.375156440201	146
20	7464	296.928899764706	146
20	7606	302.79266973055	146
20	7833	311.530801317926	146
20	8080	321.43898773445	146
20	8248	327.877281563274	146
20	8510	338.666505837556	146
20	8781	349.46847729602	146
20	9057	360.685262216514	146
20	9380	373.107641999152	146
20	9671	384.60596175292	146
20	9946	396.006203029748	146
20	10238	408.071949888448	146
20	10583	422.121433313214	146
20	10761	428.449583398569	146
20	10932	435.464760539064	146
20	11067	440.710959997313	146
20	11240	447.234506818046	146
20	11428	454.982742279019	146
20	11628	462.699269709957	146
20	11834	471.034344089069	146
20	12095	481.33523297992	146
20	12242	486.580506812195	146
21	240	10.928503572721	130
21	576	24.371160818675	130
21	952	38.942712334288	130
21	1220	50.063669511785	130
21	1506	61.770048281362	130
21	1801	73.301131391071	130
21	2063	84.529591960563	130
21	2221	90.73155729544	130
21	2376	96.373032011898	130
21	2598	104.558721230641	130
21	2954	119.180605859364	130
21	3311	132.997958660412	130
21	3572	143.516120603918	130
21	3812	152.995381840779	130
21	4040	162.109349346785	130
21	4341	174.409255486823	130
21	4504	181.056197335394	130
21	4860	195.398338096943	130
21	5167	207.361773684136	130
21	5386	216.196413029629	130
21	5742	230.724329863966	130
21	6102	244.362885906565	130
21	6458	258.658179112644	130
21	6650	266.588382041639	130
21	6808	273.06979071923	130
21	7069	283.043704671686	130
21	7314	291.375156440201	130
21	7464	296.928899764706	130
21	7606	302.79266973055	130
21	7833	311.530801317926	130
21	8080	321.43898773445	130
21	8248	327.877281563274	130
21	8510	338.666505837556	130
21	8781	349.46847729602	130
21	9057	360.685262216514	130
21	9380	373.107641999152	130
21	9671	384.60596175292	130
21	9946	396.006203029748	130
21	10238	408.071949888448	130
21	10583	422.121433313214	130
21	10761	428.449583398569	130
21	10932	435.464760539064	130
21	11067	440.710959997313	130
21	11240	447.234506818046	130
21	11428	454.982742279019	130
21	11628	462.699269709957	130
21	11834	471.034344089069	130
21	12095	481.33523297992	130
21	12242	486.580506812195	130
22	244	11	1000
22	288	12.951545335884	1000
22	329	14.830509390087	1000
22	352	15.80751581648	1000
22	363	16.292643980202	1000
22	374	16.64580311934	1000
22	379	16.704187788433	1000
22	388	17.022543929275	1000
22	403	17.671990277526	1000
22	440	19.344201477851	1000
22	455	19.998084045072	1000
22	468	20.496956054088	1000
22	509	22.305325318363	1000
22	531	22.716903314606	1000
22	534	22.737328903005	1000
22	584	24.524816566444	1000
22	589	24.676047420109	1000
22	634	26.716939636021	1000
22	649	27.358648808699	1000
22	695	28.972650883592	1000
22	728	30.489186857582	1000
22	735	30.61506126702	1000
22	758	31.636493141369	1000
22	763	31.791222821869	1000
22	824	34.685643299856	1000
22	843	35.423470591612	1000
22	856	35.95903631184	1000
22	865	36.266316663993	1000
22	898	37.754571489745	1000
22	924	38.363653912928	1000
22	931	38.50893194022	1000
22	942	38.900702750897	1000
22	958	39.062839240343	1000
22	981	40.022387217711	1000
22	1042	42.900302238989	1000
22	1067	44.045441193689	1000
22	1078	44.49095968874	1000
22	1093	45.065492095481	1000
22	1131	46.261599894938	1000
22	1204	49.761813579393	1000
22	1240	50.820647710881	1000
22	1247	51.056854416964	1000
22	1252	51.194883105392	1000
22	1274	51.573845069675	1000
22	1285	51.966957626979	1000
22	1290	52.006140783392	1000
22	1313	53.012011788559	1000
22	1380	56.204958430613	1000
22	1403	57.262784843965	1000
22	1426	58.270804089385	1000
22	1559	63.630904439628	1000
22	1572	64.165969116711	1000
22	1589	64.809750118314	1000
22	1610	65.786614192385	1000
22	1621	66.199115422307	1000
22	1648	67.32228372384	1000
22	1659	67.703839567214	1000
22	1692	69.210474900487	1000
22	1753	72.197664792339	1000
22	1789	73.283934173217	1000
22	1805	73.386079054742	1000
22	1832	74.505893420496	1000
22	1905	78.07948179284	1000
22	1950	80.184803093632	1000
22	1967	80.897386686965	1000
22	1972	80.954713613389	1000
22	1987	81.55466050003	1000
22	1990	81.574850628176	1000
22	2005	82.157729017043	1000
22	2097	86.049299139888	1000
22	2118	86.400475229269	1000
22	2144	87.567348755818	1000
22	2189	89.69158595282	1000
22	2253	92.195497735905	1000
22	2280	93.37468726297	1000
22	2301	94.21078479494	1000
22	2310	94.519199635038	1000
22	2327	95.259958585485	1000
22	2332	95.358608893903	1000
22	2364	96.216504534977	1000
22	2384	96.541844950506	1000
22	2409	97.642690860597	1000
22	2414	97.784021574158	1000
22	2443	99.043955384267	1000
22	2452	99.385609551293	1000
22	2459	99.58795998986	1000
22	2480	100.471089031819	1000
22	2483	100.491401490615	1000
22	2533	102.257142563028	1000
22	2540	102.415484069259	1000
22	2559	103.258567101407	1000
22	2586	104.475075754844	1000
22	2608	104.815422493079	1000
22	2617	105.101443465587	1000
22	2636	105.959836433416	1000
22	2657	106.856427304202	1000
22	2678	107.705648115766	1000
22	2685	107.958068108657	1000
22	2761	111.010349765541	1000
22	2776	111.606729159871	1000
22	2855	115.449735743115	1000
22	2860	115.573262390477	1000
22	2893	117.030080949041	1000
22	2906	117.560803445658	1000
22	2931	118.686085462502	1000
22	2940	118.973495938572	1000
22	2962	119.349234780979	1000
22	2989	120.528617714624	1000
22	3018	121.820526983425	1000
22	3035	122.516326444325	1000
22	3111	125.641794801983	1000
22	3124	126.144105600244	1000
22	3147	127.108559165738	1000
22	3162	127.752663874061	1000
22	3177	128.387791589692	1000
22	3206	129.646835106956	1000
22	3226	129.986499839538	1000
22	3249	130.948874895309	1000
22	3264	131.508835965383	1000
22	3269	131.654409943831	1000
22	3280	132.008634076076	1000
22	3299	132.852522548667	1000
22	3331	133.746251626973	1000
22	3334	133.780455045331	1000
22	3407	137.252990524613	1000
22	3418	137.640120616762	1000
22	3436	137.89020211174	1000
22	3449	138.348374995698	1000
22	3464	138.920836547126	1000
22	3511	141.145751204351	1000
22	3546	142.786648782278	1000
22	3586	144.003668277615	1000
22	3591	144.108550113215	1000
22	3602	144.542895769159	1000
22	3617	145.176358386882	1000
22	3658	147.016091171959	1000
22	3707	149.36626846171	1000
22	3712	149.404551374595	1000
22	3729	150.114469301819	1000
22	3734	150.297007903702	1000
22	3780	151.806831359311	1000
22	3826	153.453550460638	1000
22	3833	153.604341470832	1000
22	3836	153.638128256384	1000
22	3919	157.687975095189	1000
22	3932	158.155247661599	1000
22	3947	158.700104789744	1000
22	3950	158.752017341927	1000
22	3963	159.206929186719	1000
22	3966	159.223696952711	1000
22	3973	159.486026261877	1000
22	4006	160.933820343865	1000
22	4078	163.818432095967	1000
22	4085	164.006727071186	1000
22	4102	164.742858171173	1000
22	4105	164.798728224062	1000
22	4114	165.021867432163	1000
22	4117	165.040562902584	1000
22	4163	166.61897562469	1000
22	4206	168.695006685133	1000
22	4267	171.57955097354	1000
22	4290	172.516689691263	1000
22	4311	173.424653718588	1000
22	4366	174.955484944855	1000
22	4371	175.00716785065	1000
22	4398	176.208138757192	1000
22	4508	181.087271645186	1000
22	4531	182.039101352728	1000
22	4550	182.8061810073	1000
22	4569	183.69755958421	1000
22	4611	185.007344955572	1000
22	4630	185.815325008971	1000
22	4637	186.054077881819	1000
22	4646	186.305676494932	1000
22	4653	186.552535763731	1000
22	4672	187.395514539145	1000
22	4687	187.997193525669	1000
22	4762	191.511672206206	1000
22	4787	192.652810109065	1000
22	4792	192.74196439906	1000
22	4797	192.800036761176	1000
22	4812	193.469150484866	1000
22	4868	195.597820579397	1000
22	4881	196.07223686973	1000
22	4888	196.270204605064	1000
22	4891	196.295192958377	1000
22	4896	196.364810629451	1000
22	4923	197.502349134992	1000
22	4938	198.106930353327	1000
22	4955	198.876050154423	1000
22	5015	201.145890170207	1000
22	5030	201.779820189601	1000
22	5045	202.388653103338	1000
22	5096	204.757571274175	1000
22	5103	204.905167307066	1000
22	5110	205.165518718613	1000
22	5155	207.299082006088	1000
22	5217	209.646925767517	1000
22	5238	210.534427696001	1000
22	5288	212.312571032835	1000
22	5291	212.31262638473	1000
22	5300	212.686389678547	1000
22	5315	213.240560507595	1000
22	5362	215.40632418847	1000
22	5398	216.545381839143	1000
22	5425	217.708495122568	1000
22	5432	217.95121361624	1000
22	5493	220.895693893663	1000
22	5535	222.208201886629	1000
22	5544	222.58463123815	1000
22	5611	225.741726779566	1000
22	5626	226.379915385159	1000
22	5655	227.623266163108	1000
22	5660	227.790140804341	1000
22	5691	229.101113172501	1000
22	5714	230.140318809082	1000
22	5721	230.382238453853	1000
22	5728	230.588596447458	1000
22	5776	232.236672620619	1000
22	5781	232.361705210542	1000
22	5798	233.090229053276	1000
22	5805	233.231871088071	1000
22	5832	234.493683761558	1000
22	5845	234.997963694809	1000
22	5877	235.831341935455	1000
22	5884	236.060586260662	1000
22	5891	236.24086056024	1000
22	5896	236.374201183513	1000
22	5925	237.654625537492	1000
22	5928	237.685551829053	1000
22	5959	239.059894843473	1000
22	5964	239.15706252184	1000
22	5973	239.402260614482	1000
22	6002	240.785577080633	1000
22	6033	242.10120333893	1000
22	6036	242.147891082574	1000
22	6043	242.38254693183	1000
22	6054	242.720701646674	1000
22	6079	243.851620125863	1000
22	6084	243.91673299065	1000
22	6114	244.727874012878	1000
22	6139	245.836283767092	1000
22	6172	247.374112481569	1000
22	6183	247.705022362745	1000
22	6202	248.587902907702	1000
22	6207	248.653994918395	1000
22	6235	249.318802667947	1000
22	6268	250.867814347102	1000
22	6291	251.800426202371	1000
22	6298	252.046842024584	1000
22	6313	252.654121313203	1000
22	6358	254.765010087586	1000
22	6375	255.442812089641	1000
22	6404	256.700049085212	1000
22	6419	257.365891571849	1000
22	6446	258.59877203488	1000
22	6474	259.288206572728	1000
22	6526	261.178308270824	1000
22	6559	262.662550753474	1000
22	6636	266.322208084239	1000
22	6701	268.304956988842	1000
22	6788	272.50681641509	1000
22	6830	273.90749211205	1000
22	6853	274.927679200005	1000
22	6864	275.387470517781	1000
22	6871	275.534695555094	1000
22	6908	277.261328934836	1000
22	6915	277.47186222304	1000
22	6932	278.187907541034	1000
22	6941	278.441918919384	1000
22	6946	278.544887283103	1000
22	7000	280.526777624212	1000
22	7011	280.947770922261	1000
22	7046	282.503065282616	1000
22	7059	283.033026861888	1000
22	7081	283.478176201294	1000
22	7086	283.562755693056	1000
22	7099	284.085723346712	1000
22	7108	284.349993810848	1000
22	7113	284.492119322241	1000
22	7118	284.547026694792	1000
22	7147	285.840174553588	1000
22	7150	285.851667803797	1000
22	7183	287.323871961791	1000
22	7188	287.482805141447	1000
22	7193	287.565667414366	1000
22	7198	287.659541961649	1000
22	7223	288.774429383556	1000
22	7232	289.055953406027	1000
22	7247	289.601611120794	1000
22	7277	290.41662945169	1000
22	7288	290.893108034288	1000
22	7293	290.994642118229	1000
22	7302	291.290543991477	1000
22	7334	292.186873196498	1000
22	7345	292.545834514875	1000
22	7354	292.849806074104	1000
22	7369	293.458870529428	1000
22	7396	294.608611917178	1000
22	7421	295.798108168513	1000
22	7432	296.131511506888	1000
22	7445	296.609429494399	1000
22	7452	296.80928503232	1000
22	7496	298.363030534352	1000
22	7521	299.441957442852	1000
22	7528	299.673378414807	1000
22	7569	301.552496849017	1000
22	7594	302.696187469604	1000
22	7612	302.892649355501	1000
22	7644	303.778410001531	1000
22	7693	306.004493990973	1000
22	7698	306.147747012355	1000
22	7731	307.658208613579	1000
22	7797	310.250657222362	1000
22	7843	311.859075071448	1000
22	7858	312.49300719794	1000
22	7916	314.63610689837	1000
22	7935	315.497774390165	1000
22	8004	318.702583219777	1000
22	8027	319.73982831388	1000
22	8030	319.775831143629	1000
22	8045	320.338656345446	1000
22	8062	321.052040628247	1000
22	8092	321.820293970114	1000
22	8126	322.86858307507	1000
22	8133	323.006536306999	1000
22	8146	323.505228639869	1000
22	8211	326.638058129416	1000
22	8218	326.845243311667	1000
22	8278	329.18848324176	1000
22	8283	329.285280714068	1000
22	8345	331.699297144576	1000
22	8362	332.312901354317	1000
22	8391	333.600863329393	1000
22	8404	334.110065816259	1000
22	8453	336.453935457058	1000
22	8480	337.625199152005	1000
22	8518	338.827912935834	1000
22	8545	340.087554106458	1000
22	8550	340.114996206888	1000
22	8579	341.429518304972	1000
22	8610	342.886078516548	1000
22	8613	342.895892952946	1000
22	8624	343.264475892557	1000
22	8633	343.529568993964	1000
22	8661	344.229594630079	1000
22	8702	346.179571541926	1000
22	8717	346.790629103212	1000
22	8793	349.82457167561	1000
22	8836	351.812511130454	1000
22	8841	351.984049757827	1000
22	8953	356.867548748172	1000
22	8960	357.04120531138	1000
22	8983	358.032484817139	1000
22	8996	358.540704271192	1000
22	9001	358.605469963982	1000
22	9014	359.157173576572	1000
22	9023	359.45650195899	1000
22	9075	361.347231113421	1000
22	9086	361.713936267215	1000
22	9091	361.841509841012	1000
22	9106	362.428278647692	1000
22	9119	362.925487934035	1000
22	9136	363.684452708284	1000
22	9177	365.551093178465	1000
22	9196	366.319555755856	1000
22	9221	367.459834632775	1000
22	9253	368.399336618638	1000
22	9298	370.43563080591	1000
22	9313	371.04106458755	1000
22	9324	371.436630187945	1000
22	9333	371.701565125582	1000
22	9354	372.654687663848	1000
22	9357	372.688321584768	1000
22	9362	372.704050708543	1000
22	9386	373.264059081874	1000
22	9405	374.050618173766	1000
22	9408	374.083622158822	1000
22	9429	374.95148402871	1000
22	9462	376.425906253494	1000
22	9473	376.897874341266	1000
22	9490	377.573230211438	1000
22	9573	381.570793688158	1000
22	9582	381.851369614335	1000
22	9606	382.320290941608	1000
22	9619	382.846321737368	1000
22	9626	383.024198495224	1000
22	9649	384.042416074031	1000
22	9677	384.71635951825	1000
22	9688	385.175387445737	1000
22	9699	385.550449388856	1000
22	9734	387.169110455276	1000
22	9739	387.242162112431	1000
22	9764	388.39282470536	1000
22	9777	388.872037399843	1000
22	9800	389.876970708903	1000
22	9855	392.492611641325	1000
22	9898	394.416350211993	1000
22	9915	395.104864100037	1000
22	9928	395.663190889302	1000
22	9987	397.392310526985	1000
22	10002	397.984967944922	1000
22	10075	401.455613025457	1000
22	10088	401.906851823948	1000
22	10101	402.413575037848	1000
22	10130	403.755594779031	1000
22	10145	404.351766670428	1000
22	10204	407.120911153266	1000
22	10213	407.418284681174	1000
22	10224	407.899162905477	1000
22	10262	409.093652848985	1000
22	10273	409.445420234415	1000
22	10383	414.275140482384	1000
22	10392	414.534252738266	1000
22	10409	415.206635640304	1000
22	10467	417.427849823504	1000
22	10492	418.598285553518	1000
22	10497	418.658413922648	1000
22	10526	419.970377003733	1000
22	10573	422.105079398274	1000
22	10593	422.423133943465	1000
22	10604	422.891929635104	1000
22	10615	423.284090924727	1000
22	10653	424.423886331392	1000
22	10660	424.612451055643	1000
22	10675	425.20900097252	1000
22	10684	425.572079812704	1000
22	10723	427.399606080521	1000
22	10732	427.67107604695	1000
22	10749	428.369013595781	1000
22	10821	431.226438943597	1000
22	10851	432.021661144906	1000
22	10910	434.838572874871	1000
22	10952	436.227931381819	1000
22	10957	436.389073960645	1000
22	10964	436.530467073378	1000
22	10991	437.761185924409	1000
22	11018	438.995865800462	1000
22	11041	439.941967541716	1000
22	11077	441.056425773432	1000
22	11090	441.596828471034	1000
22	11097	441.737573626463	1000
22	11118	442.66421222676	1000
22	11131	443.146787441921	1000
22	11191	445.404264232677	1000
22	11194	445.423753525629	1000
22	11286	449.314663616037	1000
22	11307	450.211716630143	1000
22	11365	452.48242673754	1000
22	11386	453.349718756371	1000
22	11474	457.06912706727	1000
22	11489	457.676911831387	1000
22	11502	458.190597444651	1000
22	11522	458.476166365154	1000
22	11551	459.709255092371	1000
22	11560	460.034671809533	1000
22	11607	462.287164679604	1000
22	11612	462.314045299114	1000
22	11644	463.296573641836	1000
22	11699	465.875686772622	1000
22	11742	467.858499352896	1000
22	11747	467.908414955322	1000
22	11756	468.200965556513	1000
22	11769	468.791800776918	1000
22	11776	468.90231665352	1000
22	11787	469.330757682311	1000
22	11816	470.678206506002	1000
22	11854	471.819249840255	1000
22	11926	474.714367457276	1000
22	11933	474.943684628913	1000
22	11944	475.361776287857	1000
22	11969	476.48953672143	1000
22	12016	478.603443536077	1000
22	12033	479.388000232995	1000
22	12044	479.720260856574	1000
22	12047	479.750962629585	1000
22	12074	480.989999136963	1000
22	12077	480.997914483469	1000
22	12101	481.464211509907	1000
22	12120	482.280804198755	1000
22	12133	482.72889216713	1000
22	12150	483.427473173209	1000
22	12155	483.594268931331	1000
22	12170	484.148537404744	1000
22	12232	486.514827668591	1000
22	12252	486.842038049917	1000
22	12279	488.016108186711	1000
22	12284	488.12082046014	1000
22	12293	488.462995151756	1000
22	12312	489.237511939691	1000
22	12341	490.525402178801	1000
22	12354	491.017843555178	1000
22	12361	491.275428421519	1000
22	12376	491.882140830763	1000
22	12461	495.4606425566	1000
22	12531	498.751291386859	1000
22	12534	498.768307010589	1000
22	12561	499.960622784808	1000
23	248	11	1008
23	289	12.951545335884	1008
23	330	14.830509390087	1008
23	353	15.80751581648	1008
23	364	16.292643980202	1008
23	375	16.64580311934	1008
23	380	16.704187788433	1008
23	389	17.022543929275	1008
23	404	17.671990277526	1008
23	441	19.344201477851	1008
23	456	19.998084045072	1008
23	469	20.496956054088	1008
23	510	22.305325318363	1008
23	532	22.716903314606	1008
23	535	22.737328903005	1008
23	585	24.524816566444	1008
23	590	24.676047420109	1008
23	635	26.716939636021	1008
23	650	27.358648808699	1008
23	696	28.972650883592	1008
23	729	30.489186857582	1008
23	736	30.61506126702	1008
23	759	31.636493141369	1008
23	764	31.791222821869	1008
23	825	34.685643299856	1008
23	844	35.423470591612	1008
23	857	35.95903631184	1008
23	866	36.266316663993	1008
23	899	37.754571489745	1008
23	925	38.363653912928	1008
23	932	38.50893194022	1008
23	943	38.900702750897	1008
23	959	39.062839240343	1008
23	982	40.022387217711	1008
23	1043	42.900302238989	1008
23	1068	44.045441193689	1008
23	1079	44.49095968874	1008
23	1094	45.065492095481	1008
23	1132	46.261599894938	1008
23	1205	49.761813579393	1008
23	1241	50.820647710881	1008
23	1248	51.056854416964	1008
23	1253	51.194883105392	1008
23	1275	51.573845069675	1008
23	1286	51.966957626979	1008
23	1291	52.006140783392	1008
23	1314	53.012011788559	1008
23	1381	56.204958430613	1008
23	1404	57.262784843965	1008
23	1427	58.270804089385	1008
23	1560	63.630904439628	1008
23	1573	64.165969116711	1008
23	1590	64.809750118314	1008
23	1611	65.786614192385	1008
23	1622	66.199115422307	1008
23	1649	67.32228372384	1008
23	1660	67.703839567214	1008
23	1693	69.210474900487	1008
23	1754	72.197664792339	1008
23	1790	73.283934173217	1008
23	1806	73.386079054742	1008
23	1833	74.505893420496	1008
23	1906	78.07948179284	1008
23	1951	80.184803093632	1008
23	1968	80.897386686965	1008
23	1973	80.954713613389	1008
23	1988	81.55466050003	1008
23	1991	81.574850628176	1008
23	2006	82.157729017043	1008
23	2098	86.049299139888	1008
23	2119	86.400475229269	1008
23	2145	87.567348755818	1008
23	2190	89.69158595282	1008
23	2254	92.195497735905	1008
23	2281	93.37468726297	1008
23	2302	94.21078479494	1008
23	2311	94.519199635038	1008
23	2328	95.259958585485	1008
23	2333	95.358608893903	1008
23	2365	96.216504534977	1008
23	2385	96.541844950506	1008
23	2410	97.642690860597	1008
23	2415	97.784021574158	1008
23	2444	99.043955384267	1008
23	2453	99.385609551293	1008
23	2460	99.58795998986	1008
23	2481	100.471089031819	1008
23	2484	100.491401490615	1008
23	2534	102.257142563028	1008
23	2541	102.415484069259	1008
23	2560	103.258567101407	1008
23	2587	104.475075754844	1008
23	2609	104.815422493079	1008
23	2618	105.101443465587	1008
23	2637	105.959836433416	1008
23	2658	106.856427304202	1008
23	2679	107.705648115766	1008
23	2686	107.958068108657	1008
23	2762	111.010349765541	1008
23	2777	111.606729159871	1008
23	2856	115.449735743115	1008
23	2861	115.573262390477	1008
23	2894	117.030080949041	1008
23	2907	117.560803445658	1008
23	2932	118.686085462502	1008
23	2941	118.973495938572	1008
23	2963	119.349234780979	1008
23	2990	120.528617714624	1008
23	3019	121.820526983425	1008
23	3036	122.516326444325	1008
23	3112	125.641794801983	1008
23	3125	126.144105600244	1008
23	3148	127.108559165738	1008
23	3163	127.752663874061	1008
23	3178	128.387791589692	1008
23	3207	129.646835106956	1008
23	3227	129.986499839538	1008
23	3250	130.948874895309	1008
23	3265	131.508835965383	1008
23	3270	131.654409943831	1008
23	3281	132.008634076076	1008
23	3300	132.852522548667	1008
23	3332	133.746251626973	1008
23	3335	133.780455045331	1008
23	3408	137.252990524613	1008
23	3419	137.640120616762	1008
23	3437	137.89020211174	1008
23	3450	138.348374995698	1008
23	3465	138.920836547126	1008
23	3512	141.145751204351	1008
23	3547	142.786648782278	1008
23	3587	144.003668277615	1008
23	3592	144.108550113215	1008
23	3603	144.542895769159	1008
23	3618	145.176358386882	1008
23	3659	147.016091171959	1008
23	3708	149.36626846171	1008
23	3713	149.404551374595	1008
23	3730	150.114469301819	1008
23	3735	150.297007903702	1008
23	3781	151.806831359311	1008
23	3827	153.453550460638	1008
23	3834	153.604341470832	1008
23	3837	153.638128256384	1008
23	3920	157.687975095189	1008
23	3933	158.155247661599	1008
23	3948	158.700104789744	1008
23	3951	158.752017341927	1008
23	3964	159.206929186719	1008
23	3967	159.223696952711	1008
23	3974	159.486026261877	1008
23	4007	160.933820343865	1008
23	4079	163.818432095967	1008
23	4086	164.006727071186	1008
23	4103	164.742858171173	1008
23	4106	164.798728224062	1008
23	4115	165.021867432163	1008
23	4118	165.040562902584	1008
23	4164	166.61897562469	1008
23	4207	168.695006685133	1008
23	4268	171.57955097354	1008
23	4291	172.516689691263	1008
23	4312	173.424653718588	1008
23	4367	174.955484944855	1008
23	4372	175.00716785065	1008
23	4399	176.208138757192	1008
23	4509	181.087271645186	1008
23	4532	182.039101352728	1008
23	4551	182.8061810073	1008
23	4570	183.69755958421	1008
23	4612	185.007344955572	1008
23	4631	185.815325008971	1008
23	4638	186.054077881819	1008
23	4647	186.305676494932	1008
23	4654	186.552535763731	1008
23	4673	187.395514539145	1008
23	4688	187.997193525669	1008
23	4763	191.511672206206	1008
23	4788	192.652810109065	1008
23	4793	192.74196439906	1008
23	4798	192.800036761176	1008
23	4813	193.469150484866	1008
23	4869	195.597820579397	1008
23	4882	196.07223686973	1008
23	4889	196.270204605064	1008
23	4892	196.295192958377	1008
23	4897	196.364810629451	1008
23	4924	197.502349134992	1008
23	4939	198.106930353327	1008
23	4956	198.876050154423	1008
23	5016	201.145890170207	1008
23	5031	201.779820189601	1008
23	5046	202.388653103338	1008
23	5097	204.757571274175	1008
23	5104	204.905167307066	1008
23	5111	205.165518718613	1008
23	5156	207.299082006088	1008
23	5218	209.646925767517	1008
23	5239	210.534427696001	1008
23	5289	212.312571032835	1008
23	5292	212.31262638473	1008
23	5301	212.686389678547	1008
23	5316	213.240560507595	1008
23	5363	215.40632418847	1008
23	5399	216.545381839143	1008
23	5426	217.708495122568	1008
23	5433	217.95121361624	1008
23	5494	220.895693893663	1008
23	5536	222.208201886629	1008
23	5545	222.58463123815	1008
23	5612	225.741726779566	1008
23	5627	226.379915385159	1008
23	5656	227.623266163108	1008
23	5661	227.790140804341	1008
23	5692	229.101113172501	1008
23	5715	230.140318809082	1008
23	5722	230.382238453853	1008
23	5729	230.588596447458	1008
23	5777	232.236672620619	1008
23	5782	232.361705210542	1008
23	5799	233.090229053276	1008
23	5806	233.231871088071	1008
23	5833	234.493683761558	1008
23	5846	234.997963694809	1008
23	5878	235.831341935455	1008
23	5885	236.060586260662	1008
23	5892	236.24086056024	1008
23	5897	236.374201183513	1008
23	5926	237.654625537492	1008
23	5929	237.685551829053	1008
23	5960	239.059894843473	1008
23	5965	239.15706252184	1008
23	5974	239.402260614482	1008
23	6003	240.785577080633	1008
23	6034	242.10120333893	1008
23	6037	242.147891082574	1008
23	6044	242.38254693183	1008
23	6055	242.720701646674	1008
23	6080	243.851620125863	1008
23	6085	243.91673299065	1008
23	6115	244.727874012878	1008
23	6140	245.836283767092	1008
23	6173	247.374112481569	1008
23	6184	247.705022362745	1008
23	6203	248.587902907702	1008
23	6208	248.653994918395	1008
23	6236	249.318802667947	1008
23	6269	250.867814347102	1008
23	6292	251.800426202371	1008
23	6299	252.046842024584	1008
23	6314	252.654121313203	1008
23	6359	254.765010087586	1008
23	6376	255.442812089641	1008
23	6405	256.700049085212	1008
23	6420	257.365891571849	1008
23	6447	258.59877203488	1008
23	6475	259.288206572728	1008
23	6527	261.178308270824	1008
23	6560	262.662550753474	1008
23	6637	266.322208084239	1008
23	6702	268.304956988842	1008
23	6789	272.50681641509	1008
23	6831	273.90749211205	1008
23	6854	274.927679200005	1008
23	6865	275.387470517781	1008
23	6872	275.534695555094	1008
23	6909	277.261328934836	1008
23	6916	277.47186222304	1008
23	6933	278.187907541034	1008
23	6942	278.441918919384	1008
23	6947	278.544887283103	1008
23	7001	280.526777624212	1008
23	7012	280.947770922261	1008
23	7047	282.503065282616	1008
23	7060	283.033026861888	1008
23	7082	283.478176201294	1008
23	7087	283.562755693056	1008
23	7100	284.085723346712	1008
23	7109	284.349993810848	1008
23	7114	284.492119322241	1008
23	7119	284.547026694792	1008
23	7148	285.840174553588	1008
23	7151	285.851667803797	1008
23	7184	287.323871961791	1008
23	7189	287.482805141447	1008
23	7194	287.565667414366	1008
23	7199	287.659541961649	1008
23	7224	288.774429383556	1008
23	7233	289.055953406027	1008
23	7248	289.601611120794	1008
23	7278	290.41662945169	1008
23	7289	290.893108034288	1008
23	7294	290.994642118229	1008
23	7303	291.290543991477	1008
23	7335	292.186873196498	1008
23	7346	292.545834514875	1008
23	7355	292.849806074104	1008
23	7370	293.458870529428	1008
23	7397	294.608611917178	1008
23	7422	295.798108168513	1008
23	7433	296.131511506888	1008
23	7446	296.609429494399	1008
23	7453	296.80928503232	1008
23	7497	298.363030534352	1008
23	7522	299.441957442852	1008
23	7529	299.673378414807	1008
23	7570	301.552496849017	1008
23	7595	302.696187469604	1008
23	7613	302.892649355501	1008
23	7645	303.778410001531	1008
23	7694	306.004493990973	1008
23	7699	306.147747012355	1008
23	7732	307.658208613579	1008
23	7798	310.250657222362	1008
23	7844	311.859075071448	1008
23	7859	312.49300719794	1008
23	7917	314.63610689837	1008
23	7936	315.497774390165	1008
23	8005	318.702583219777	1008
23	8028	319.73982831388	1008
23	8031	319.775831143629	1008
23	8046	320.338656345446	1008
23	8063	321.052040628247	1008
23	8093	321.820293970114	1008
23	8127	322.86858307507	1008
23	8134	323.006536306999	1008
23	8147	323.505228639869	1008
23	8212	326.638058129416	1008
23	8219	326.845243311667	1008
23	8279	329.18848324176	1008
23	8284	329.285280714068	1008
23	8346	331.699297144576	1008
23	8363	332.312901354317	1008
23	8392	333.600863329393	1008
23	8405	334.110065816259	1008
23	8454	336.453935457058	1008
23	8481	337.625199152005	1008
23	8519	338.827912935834	1008
23	8546	340.087554106458	1008
23	8551	340.114996206888	1008
23	8580	341.429518304972	1008
23	8611	342.886078516548	1008
23	8614	342.895892952946	1008
23	8625	343.264475892557	1008
23	8634	343.529568993964	1008
23	8662	344.229594630079	1008
23	8703	346.179571541926	1008
23	8718	346.790629103212	1008
23	8794	349.82457167561	1008
23	8837	351.812511130454	1008
23	8842	351.984049757827	1008
23	8954	356.867548748172	1008
23	8961	357.04120531138	1008
23	8984	358.032484817139	1008
23	8997	358.540704271192	1008
23	9002	358.605469963982	1008
23	9015	359.157173576572	1008
23	9024	359.45650195899	1008
23	9076	361.347231113421	1008
23	9087	361.713936267215	1008
23	9092	361.841509841012	1008
23	9107	362.428278647692	1008
23	9120	362.925487934035	1008
23	9137	363.684452708284	1008
23	9178	365.551093178465	1008
23	9197	366.319555755856	1008
23	9222	367.459834632775	1008
23	9254	368.399336618638	1008
23	9299	370.43563080591	1008
23	9314	371.04106458755	1008
23	9325	371.436630187945	1008
23	9334	371.701565125582	1008
23	9355	372.654687663848	1008
23	9358	372.688321584768	1008
23	9363	372.704050708543	1008
23	9387	373.264059081874	1008
23	9406	374.050618173766	1008
23	9409	374.083622158822	1008
23	9430	374.95148402871	1008
23	9463	376.425906253494	1008
23	9474	376.897874341266	1008
23	9491	377.573230211438	1008
23	9574	381.570793688158	1008
23	9583	381.851369614335	1008
23	9607	382.320290941608	1008
23	9620	382.846321737368	1008
23	9627	383.024198495224	1008
23	9650	384.042416074031	1008
23	9678	384.71635951825	1008
23	9689	385.175387445737	1008
23	9700	385.550449388856	1008
23	9735	387.169110455276	1008
23	9740	387.242162112431	1008
23	9765	388.39282470536	1008
23	9778	388.872037399843	1008
23	9801	389.876970708903	1008
23	9856	392.492611641325	1008
23	9899	394.416350211993	1008
23	9916	395.104864100037	1008
23	9929	395.663190889302	1008
23	9988	397.392310526985	1008
23	10003	397.984967944922	1008
23	10076	401.455613025457	1008
23	10089	401.906851823948	1008
23	10102	402.413575037848	1008
23	10131	403.755594779031	1008
23	10146	404.351766670428	1008
23	10205	407.120911153266	1008
23	10214	407.418284681174	1008
23	10225	407.899162905477	1008
23	10263	409.093652848985	1008
23	10274	409.445420234415	1008
23	10384	414.275140482384	1008
23	10393	414.534252738266	1008
23	10410	415.206635640304	1008
23	10468	417.427849823504	1008
23	10493	418.598285553518	1008
23	10498	418.658413922648	1008
23	10527	419.970377003733	1008
23	10574	422.105079398274	1008
23	10594	422.423133943465	1008
23	10605	422.891929635104	1008
23	10616	423.284090924727	1008
23	10654	424.423886331392	1008
23	10661	424.612451055643	1008
23	10676	425.20900097252	1008
23	10685	425.572079812704	1008
23	10724	427.399606080521	1008
23	10733	427.67107604695	1008
23	10750	428.369013595781	1008
23	10822	431.226438943597	1008
23	10852	432.021661144906	1008
23	10911	434.838572874871	1008
23	10953	436.227931381819	1008
23	10958	436.389073960645	1008
23	10965	436.530467073378	1008
23	10992	437.761185924409	1008
23	11019	438.995865800462	1008
23	11042	439.941967541716	1008
23	11078	441.056425773432	1008
23	11091	441.596828471034	1008
23	11098	441.737573626463	1008
23	11119	442.66421222676	1008
23	11132	443.146787441921	1008
23	11192	445.404264232677	1008
23	11195	445.423753525629	1008
23	11287	449.314663616037	1008
23	11308	450.211716630143	1008
23	11366	452.48242673754	1008
23	11387	453.349718756371	1008
23	11475	457.06912706727	1008
23	11490	457.676911831387	1008
23	11503	458.190597444651	1008
23	11523	458.476166365154	1008
23	11552	459.709255092371	1008
23	11561	460.034671809533	1008
23	11608	462.287164679604	1008
23	11613	462.314045299114	1008
23	11645	463.296573641836	1008
23	11700	465.875686772622	1008
23	11743	467.858499352896	1008
23	11748	467.908414955322	1008
23	11757	468.200965556513	1008
23	11770	468.791800776918	1008
23	11777	468.90231665352	1008
23	11788	469.330757682311	1008
23	11817	470.678206506002	1008
23	11855	471.819249840255	1008
23	11927	474.714367457276	1008
23	11934	474.943684628913	1008
23	11945	475.361776287857	1008
23	11970	476.48953672143	1008
23	12017	478.603443536077	1008
23	12034	479.388000232995	1008
23	12045	479.720260856574	1008
23	12048	479.750962629585	1008
23	12075	480.989999136963	1008
23	12078	480.997914483469	1008
23	12102	481.464211509907	1008
23	12121	482.280804198755	1008
23	12134	482.72889216713	1008
23	12151	483.427473173209	1008
23	12156	483.594268931331	1008
23	12171	484.148537404744	1008
23	12233	486.514827668591	1008
23	12253	486.842038049917	1008
23	12280	488.016108186711	1008
23	12285	488.12082046014	1008
23	12294	488.462995151756	1008
23	12313	489.237511939691	1008
23	12342	490.525402178801	1008
23	12355	491.017843555178	1008
23	12362	491.275428421519	1008
23	12377	491.882140830763	1008
23	12462	495.4606425566	1008
23	12532	498.751291386859	1008
23	12535	498.768307010589	1008
23	12562	499.960622784808	1008
24	12566	0.1	0
24	12566	0.2	0
24	12566	0.3	0
24	12566	0.4	0
24	12566	0.5	0
24	12566	0.6	0
24	12566	0.7	0
24	12566	0.8	0
24	12566	0.9	0
24	12566	1	0
24	12566	1.1	0
24	12566	1.2	0
24	12566	1.3	0
24	12566	1.4	0
24	12566	1.5	0
24	12566	1.6	0
24	12566	1.7	0
24	12566	1.8	0
24	12566	1.9	0
24	12566	2	0
24	12566	2.1	0
24	12566	2.2	0
24	12566	2.3	0
24	12566	2.4	0
24	12566	2.5	0
24	12566	2.6	0
24	12566	2.7	0
24	12566	2.8	0
24	12566	2.9	0
24	12566	3	0
24	12566	3.1	0
24	12566	3.2	0
24	12566	3.3	0
24	12566	3.4	0
24	12566	3.5	0
24	12566	3.6	0
24	12566	3.7	0
24	12566	3.8	0
24	12566	3.9	0
24	12566	4	0
24	12566	4.1	0
24	12566	4.2	0
24	12566	4.3	0
24	12566	4.4	0
24	12566	4.5	0
24	12566	4.6	0
24	12566	4.7	0
24	12566	4.8	0
24	12566	4.9	0
24	12566	5	0
24	12566	5.1	0
24	12566	5.2	0
24	12566	5.3	0
24	12566	5.4	0
24	12566	5.5	0
24	12566	5.6	0
24	12566	5.7	0
24	12566	5.8	0
24	12566	5.9	0
24	12566	6	0
24	12566	6.1	0
24	12566	6.2	0
24	12566	6.3	0
24	12566	6.4	0
24	12566	6.5	0
24	12566	6.6	0
24	12566	6.7	0
24	12566	6.8	0
24	12566	6.9	0
24	12566	7	0
24	12566	7.1	0
24	12566	7.2	0
24	12566	7.3	0
24	12566	7.4	0
24	12566	7.5	0
24	12566	7.6	0
24	12566	7.7	0
24	12566	7.8	0
24	12566	7.9	0
24	12566	8	0
24	12566	8.1	0
24	12566	8.2	0
24	12566	8.3	0
24	12566	8.4	0
24	12566	8.5	0
24	12566	8.6	0
24	12566	8.7	0
24	12566	8.8	0
24	12566	8.9	0
24	12566	9	0
24	12566	9.1	0
24	12566	9.2	0
24	12566	9.3	0
24	12566	9.4	0
24	12566	9.5	0
24	12566	9.6	0
24	12566	9.7	0
24	12566	9.8	0
24	12566	9.9	0
24	12566	10	0
24	12566	10.1	0
24	12566	10.2	0
24	12566	10.3	0
24	12566	10.4	0
24	12566	10.5	0
24	12566	10.6	0
24	12566	10.7	0
24	12566	10.8	0
24	12566	10.9	0
24	12566	11	0
24	12566	11.1	0
24	12566	11.2	0
24	12566	11.3	0
24	12566	11.4	0
24	12566	11.5	0
24	12566	11.6	0
24	12566	11.7	0
24	12566	11.8	0
24	12566	11.9	0
24	12566	12	0
24	12566	12.1	0
24	12566	12.2	0
24	12566	12.3	0
24	12566	12.4	0
24	12566	12.5	0
24	12566	12.6	0
24	12566	12.7	0
24	12566	12.8	0
24	12566	12.9	0
24	12566	13	0
24	12566	13.1	0
24	12566	13.2	0
24	12566	13.3	0
24	12566	13.4	0
24	12566	13.5	0
24	12566	13.6	0
24	12566	13.7	0
24	12566	13.8	0
24	12566	13.9	0
24	12566	14	0
24	12566	14.1	0
24	12566	14.2	0
24	12566	14.3	0
24	12566	14.4	0
24	12566	14.5	0
24	12566	14.6	0
24	12566	14.7	0
24	12566	14.8	0
24	12566	14.9	0
24	12566	15	0
24	12566	15.1	0
24	12566	15.2	0
24	12566	15.3	0
24	12566	15.4	0
24	12566	15.5	0
24	12566	15.6	0
24	12566	15.7	0
24	12566	15.8	0
24	12566	15.9	0
24	12566	16	0
24	12566	16.1	0
24	12566	16.2	0
24	12566	16.3	0
24	12566	16.4	0
24	12566	16.5	0
24	12566	16.6	0
24	12566	16.7	0
24	12566	16.8	0
24	12566	16.9	0
24	12566	17	0
24	12566	17.1	0
24	12566	17.2	0
24	12566	17.3	0
24	12566	17.4	0
24	12566	17.5	0
24	12566	17.6	0
24	12566	17.7	0
24	12566	17.8	0
24	12566	17.9	0
24	12566	18	0
24	12566	18.1	0
24	12566	18.2	0
24	12566	18.3	0
24	12566	18.4	0
24	12566	18.5	0
24	12566	18.6	0
24	12566	18.7	0
24	12566	18.8	0
24	12566	18.9	0
24	12566	19	0
24	12566	19.1	0
24	12566	19.2	0
24	12566	19.3	0
24	12566	19.4	0
24	12566	19.5	0
24	12566	19.6	0
24	12566	19.7	0
24	12566	19.8	0
24	12566	19.9	0
24	12566	20	0
24	12566	20.1	0
24	12566	20.2	0
24	12566	20.3	0
24	12566	20.4	0
24	12566	20.5	0
24	12566	20.6	0
24	12566	20.7	0
24	12566	20.8	0
24	12566	20.9	0
24	12566	21	0
24	12566	21.1	0
24	12566	21.2	0
24	12566	21.3	0
24	12566	21.4	0
24	12566	21.5	0
24	12566	21.6	0
24	12566	21.7	0
24	12566	21.8	0
24	12566	21.9	0
24	12566	22	0
24	12566	22.1	0
24	12566	22.2	0
24	12566	22.3	0
24	12566	22.4	0
24	12566	22.5	0
24	12566	22.6	0
24	12566	22.7	0
24	12566	22.8	0
24	12566	22.9	0
24	12566	23	0
24	12566	23.1	0
24	12566	23.2	0
24	12566	23.3	0
24	12566	23.4	0
24	12566	23.5	0
24	12566	23.6	0
24	12566	23.7	0
24	12566	23.8	0
24	12566	23.9	0
24	12566	24	0
24	12566	24.1	0
24	12566	24.2	0
24	12566	24.3	0
24	12566	24.4	0
24	12566	24.5	0
24	12566	24.6	0
24	12566	24.7	0
24	12566	24.8	0
24	12566	24.9	0
24	12566	25	0
24	12566	25.1	0
24	12566	25.2	0
24	12566	25.3	0
24	12566	25.4	0
24	12566	25.5	0
24	12566	25.6	0
24	12566	25.7	0
24	12566	25.8	0
24	12566	25.9	0
24	12566	26	0
24	12566	26.1	0
24	12566	26.2	0
24	12566	26.3	0
24	12566	26.4	0
24	12566	26.5	0
24	12566	26.6	0
24	12566	26.7	0
24	12566	26.8	0
24	12566	26.9	0
24	12566	27	0
24	12566	27.1	0
24	12566	27.2	0
24	12566	27.3	0
24	12566	27.4	0
24	12566	27.5	0
24	12566	27.6	0
24	12566	27.7	0
24	12566	27.8	0
24	12566	27.9	0
24	12566	28	0
24	12566	28.1	0
24	12566	28.2	0
24	12566	28.3	0
24	12566	28.4	0
24	12566	28.5	0
24	12566	28.6	0
24	12566	28.7	0
24	12566	28.8	0
24	12566	28.9	0
24	12566	29	0
24	12566	29.1	0
24	12566	29.2	0
24	12566	29.3	0
24	12566	29.4	0
24	12566	29.5	0
24	12566	29.6	0
24	12566	29.7	0
24	12566	29.8	0
24	12566	29.9	0
24	12566	30	0
24	12566	30.1	0
24	12566	30.2	0
24	12566	30.3	0
24	12566	30.4	0
24	12566	30.5	0
24	12566	30.6	0
24	12566	30.7	0
24	12566	30.8	0
24	12566	30.9	0
24	12566	31	0
24	12566	31.1	0
24	12566	31.2	0
24	12566	31.3	0
24	12566	31.4	0
24	12566	31.5	0
24	12566	31.6	0
24	12566	31.7	0
24	12566	31.8	0
24	12566	31.9	0
24	12566	32	0
24	12566	32.1	0
24	12566	32.2	0
24	12566	32.3	0
24	12566	32.4	0
24	12566	32.5	0
24	12566	32.6	0
24	12566	32.7	0
24	12566	32.8	0
24	12566	32.9	0
24	12566	33	0
24	12566	33.1	0
24	12566	33.2	0
24	12566	33.3	0
24	12566	33.4	0
24	12566	33.5	0
24	12566	33.6	0
24	12566	33.7	0
24	12566	33.8	0
24	12566	33.9	0
24	12566	34	0
24	12566	34.1	0
24	12566	34.2	0
24	12566	34.3	0
24	12566	34.4	0
24	12566	34.5	0
24	12566	34.6	0
24	12566	34.7	0
24	12566	34.8	0
24	12566	34.9	0
24	12566	35	0
24	12566	35.1	0
24	12566	35.2	0
24	12566	35.3	0
24	12566	35.4	0
24	12566	35.5	0
24	12566	35.6	0
24	12566	35.7	0
24	12566	35.8	0
24	12566	35.9	0
24	12566	36	0
24	12566	36.1	0
24	12566	36.2	0
24	12566	36.3	0
24	12566	36.4	0
24	12566	36.5	0
24	12566	36.6	0
24	12566	36.7	0
24	12566	36.8	0
24	12566	36.9	0
24	12566	37	0
24	12566	37.1	0
24	12566	37.2	0
24	12566	37.3	0
24	12566	37.4	0
24	12566	37.5	0
24	12566	37.6	0
24	12566	37.7	0
24	12566	37.8	0
24	12566	37.9	0
24	12566	38	0
24	12566	38.1	0
24	12566	38.2	0
24	12566	38.3	0
24	12566	38.4	0
24	12566	38.5	0
24	12566	38.6	0
24	12566	38.7	0
24	12566	38.8	0
24	12566	38.9	0
24	12566	39	0
24	12566	39.1	0
24	12566	39.2	0
24	12566	39.3	0
24	12566	39.4	0
24	12566	39.5	0
24	12566	39.6	0
[...]
25	12566	381.1	0
25	12566	381.2	0
25	12566	381.3	0
25	12566	381.4	0
25	12566	381.5	0
25	12566	381.6	0
25	12566	381.7	0
25	12566	381.8	0
25	12566	381.9	0
25	12566	382	0
25	12566	382.1	0
25	12566	382.2	0
25	12566	382.3	0
25	12566	382.4	0
25	12566	382.5	0
25	12566	382.6	0
25	12566	382.7	0
25	12566	382.8	0
25	12566	382.9	0
25	12566	383	0
25	12566	383.1	0
25	12566	383.2	0
25	12566	383.3	0
25	12566	383.4	0
25	12566	383.5	0
25	12566	383.6	0
25	12566	383.7	0
25	12566	383.8	0
25	12566	383.9	0
25	12566	384	0
25	12566	384.1	0
25	12566	384.2	0
25	12566	384.3	0
25	12566	384.4	0
25	12566	384.5	0
25	12566	384.6	0
25	12566	384.7	0
25	12566	384.8	0
25	12566	384.9	0
25	12566	385	0
25	12566	385.1	0
25	12566	385.2	0
25	12566	385.3	0
25	12566	385.4	0
25	12566	385.5	0
25	12566	385.6	0
25	12566	385.7	0
25	12566	385.8	0
25	12566	385.9	0
25	12566	386	0
25	12566	386.1	0
25	12566	386.2	0
25	12566	386.3	0
25	12566	386.4	0
25	12566	386.5	0
25	12566	386.6	0
25	12566	386.7	0
25	12566	386.8	0
25	12566	386.9	0
25	12566	387	0
25	12566	387.1	0
25	12566	387.2	0
25	12566	387.3	0
25	12566	387.4	0
25	12566	387.5	0
25	12566	387.6	0
25	12566	387.7	0
25	12566	387.8	0
25	12566	387.9	0
25	12566	388	0
25	12566	388.1	0
25	12566	388.2	0
25	12566	388.3	0
25	12566	388.4	0
25	12566	388.5	0
25	12566	388.6	0
25	12566	388.7	0
25	12566	388.8	0
25	12566	388.9	0
25	12566	389	0
25	12566	389.1	0
25	12566	389.2	0
25	12566	389.3	0
25	12566	389.4	0
25	12566	389.5	0
25	12566	389.6	0
25	12566	389.7	0
25	12566	389.8	0
25	12566	389.9	0
25	12566	390	0
25	12566	390.1	0
25	12566	390.2	0
25	12566	390.3	0
25	12566	390.4	0
25	12566	390.5	0
25	12566	390.6	0
25	12566	390.7	0
25	12566	390.8	0
25	12566	390.9	0
25	12566	391	0
25	12566	391.1	0
25	12566	391.2	0
25	12566	391.3	0
25	12566	391.4	0
25	12566	391.5	0
25	12566	391.6	0
25	12566	391.7	0
25	12566	391.8	0
25	12566	391.9	0
25	12566	392	0
25	12566	392.1	0
25	12566	392.2	0
25	12566	392.3	0
25	12566	392.4	0
25	12566	392.5	0
25	12566	392.6	0
25	12566	392.7	0
25	12566	392.8	0
25	12566	392.9	0
25	12566	393	0
25	12566	393.1	0
25	12566	393.2	0
25	12566	393.3	0
25	12566	393.4	0
25	12566	393.5	0
25	12566	393.6	0
25	12566	393.7	0
25	12566	393.8	0
25	12566	393.9	0
25	12566	394	0
25	12566	394.1	0
25	12566	394.2	0
25	12566	394.3	0
25	12566	394.4	0
25	12566	394.5	0
25	12566	394.6	0
25	12566	394.7	0
25	12566	394.8	0
25	12566	394.9	0
25	12566	395	0
25	12566	395.1	0
25	12566	395.2	0
25	12566	395.3	0
25	12566	395.4	0
25	12566	395.5	0
25	12566	395.6	0
25	12566	395.7	0
25	12566	395.8	0
25	12566	395.9	0
25	12566	396	0
25	12566	396.1	0
25	12566	396.2	0
25	12566	396.3	0
25	12566	396.4	0
25	12566	396.5	0
25	12566	396.6	0
25	12566	396.7	0
25	12566	396.8	0
25	12566	396.9	0
25	12566	397	0
25	12566	397.1	0
25	12566	397.2	0
25	12566	397.3	0
25	12566	397.4	0
25	12566	397.5	0
25	12566	397.6	0
25	12566	397.7	0
25	12566	397.8	0
25	12566	397.9	0
25	12566	398	0
25	12566	398.1	0
25	12566	398.2	0
25	12566	398.3	0
25	12566	398.4	0
25	12566	398.5	0
25	12566	398.6	0
25	12566	398.7	0
25	12566	398.8	0
25	12566	398.9	0
25	12566	399	0
25	12566	399.1	0
25	12566	399.2	0
25	12566	399.3	0
25	12566	399.4	0
25	12566	399.5	0
25	12566	399.6	0
25	12566	399.7	0
25	12566	399.8	0
25	12566	399.9	0
25	12566	400	0
25	12566	400.1	0
25	12566	400.2	0
25	12566	400.3	0
25	12566	400.4	0
25	12566	400.5	0
25	12566	400.6	0
25	12566	400.7	0
25	12566	400.8	0
25	12566	400.9	0
25	12566	401	0
25	12566	401.1	0
25	12566	401.2	0
25	12566	401.3	0
25	12566	401.4	0
25	12566	401.5	0
25	12566	401.6	0
25	12566	401.7	0
25	12566	401.8	0
25	12566	401.9	0
25	12566	402	0
25	12566	402.1	0
25	12566	402.2	0
25	12566	402.3	0
25	12566	402.4	0
25	12566	402.5	0
25	12566	402.6	0
25	12566	402.7	0
25	12566	402.8	0
25	12566	402.9	0
25	12566	403	0
25	12566	403.1	0
25	12566	403.2	0
25	12566	403.3	0
25	12566	403.4	0
25	12566	403.5	0
25	12566	403.6	0
25	12566	403.7	0
25	12566	403.8	0
25	12566	403.9	0
25	12566	404	0
25	12566	404.1	0
25	12566	404.2	0
25	12566	404.3	0
25	12566	404.4	0
25	12566	404.5	0
25	12566	404.6	0
25	12566	404.7	0
25	12566	404.8	0
25	12566	404.9	0
25	12566	405	0
25	12566	405.1	0
25	12566	405.2	0
25	12566	405.3	0
25	12566	405.4	0
25	12566	405.5	0
25	12566	405.6	0
25	12566	405.7	0
25	12566	405.8	0
25	12566	405.9	0
25	12566	406	0
25	12566	406.1	0
25	12566	406.2	0
25	12566	406.3	0
25	12566	406.4	0
25	12566	406.5	0
25	12566	406.6	0
25	12566	406.7	0
25	12566	406.8	0
25	12566	406.9	0
25	12566	407	0
25	12566	407.1	0
25	12566	407.2	0
25	12566	407.3	0
25	12566	407.4	0
25	12566	407.5	0
25	12566	407.6	0
25	12566	407.7	0
25	12566	407.8	0
25	12566	407.9	0
25	12566	408	0
25	12566	408.1	0
25	12566	408.2	0
25	12566	408.3	0
25	12566	408.4	0
25	12566	408.5	0
25	12566	408.6	0
25	12566	408.7	0
25	12566	408.8	0
25	12566	408.9	0
25	12566	409	0
25	12566	409.1	0
25	12566	409.2	0
25	12566	409.3	0
25	12566	409.4	0
25	12566	409.5	0
25	12566	409.6	0
25	12566	409.7	0
25	12566	409.8	0
25	12566	409.9	0
25	12566	410	0
25	12566	410.1	0
25	12566	410.2	0
25	12566	410.3	0
25	12566	410.4	0
25	12566	410.5	0
25	12566	410.6	0
25	12566	410.7	0
25	12566	410.8	0
25	12566	410.9	0
25	12566	411	0
25	12566	411.1	0
25	12566	411.2	0
25	12566	411.3	0
25	12566	411.4	0
25	12566	411.5	0
25	12566	411.6	0
25	12566	411.7	0
25	12566	411.8	0
25	12566	411.9	0
25	12566	412	0
25	12566	412.1	0
25	12566	412.2	0
25	12566	412.3	0
25	12566	412.4	0
25	12566	412.5	0
25	12566	412.6	0
25	12566	412.7	0
25	12566	412.8	0
25	12566	412.9	0
25	12566	413	0
25	12566	413.1	0
25	12566	413.2	0
25	12566	413.3	0
25	12566	413.4	0
25	12566	413.5	0
25	12566	413.6	0
25	12566	413.7	0
25	12566	413.8	0
25	12566	413.9	0
25	12566	414	0
25	12566	414.1	0
25	12566	414.2	0
25	12566	414.3	0
25	12566	414.4	0
25	12566	414.5	0
25	12566	414.6	0
25	12566	414.7	0
25	12566	414.8	0
25	12566	414.9	0
25	12566	415	0
25	12566	415.1	0
25	12566	415.2	0
25	12566	415.3	0
25	12566	415.4	0
25	12566	415.5	0
25	12566	415.6	0
25	12566	415.7	0
25	12566	415.8	0
25	12566	415.9	0
25	12566	416	0
25	12566	416.1	0
25	12566	416.2	0
25	12566	416.3	0
25	12566	416.4	0
25	12566	416.5	0
25	12566	416.6	0
25	12566	416.7	0
25	12566	416.8	0
25	12566	416.9	0
25	12566	417	0
25	12566	417.1	0
25	12566	417.2	0
25	12566	417.3	0
25	12566	417.4	0
25	12566	417.5	0
25	12566	417.6	0
25	12566	417.7	0
25	12566	417.8	0
25	12566	417.9	0
25	12566	418	0
25	12566	418.1	0
25	12566	418.2	0
25	12566	418.3	0
25	12566	418.4	0
25	12566	418.5	0
25	12566	418.6	0
25	12566	418.7	0
25	12566	418.8	0
25	12566	418.9	0
25	12566	419	0
25	12566	419.1	0
25	12566	419.2	0
25	12566	419.3	0
25	12566	419.4	0
25	12566	419.5	0
25	12566	419.6	0
25	12566	419.7	0
25	12566	419.8	0
25	12566	419.9	0
25	12566	420	0
25	12566	420.1	0
25	12566	420.2	0
25	12566	420.3	0
25	12566	420.4	0
25	12566	420.5	0
25	12566	420.6	0
25	12566	420.7	0
25	12566	420.8	0
25	12566	420.9	0
25	12566	421	0
25	12566	421.1	0
25	12566	421.2	0
25	12566	421.3	0
25	12566	421.4	0
25	12566	421.5	0
25	12566	421.6	0
25	12566	421.7	0
25	12566	421.8	0
25	12566	421.9	0
25	12566	422	0
25	12566	422.1	0
25	12566	422.2	0
25	12566	422.3	0
25	12566	422.4	0
25	12566	422.5	0
25	12566	422.6	0
25	12566	422.7	0
25	12566	422.8	0
25	12566	422.9	0
25	12566	423	0
25	12566	423.1	0
25	12566	423.2	0
25	12566	423.3	0
25	12566	423.4	0
25	12566	423.5	0
25	12566	423.6	0
25	12566	423.7	0
25	12566	423.8	0
25	12566	423.9	0
25	12566	424	0
25	12566	424.1	0
25	12566	424.2	0
25	12566	424.3	0
25	12566	424.4	0
25	12566	424.5	0
25	12566	424.6	0
25	12566	424.7	0
25	12566	424.8	0
25	12566	424.9	0
25	12566	425	0
25	12566	425.1	0
25	12566	425.2	0
25	12566	425.3	0
25	12566	425.4	0
25	12566	425.5	0
25	12566	425.6	0
25	12566	425.7	0
25	12566	425.8	0
25	12566	425.9	0
25	12566	426	0
25	12566	426.1	0
25	12566	426.2	0
25	12566	426.3	0
25	12566	426.4	0
25	12566	426.5	0
25	12566	426.6	0
25	12566	426.7	0
25	12566	426.8	0
25	12566	426.9	0
25	12566	427	0
25	12566	427.1	0
25	12566	427.2	0
25	12566	427.3	0
25	12566	427.4	0
25	12566	427.5	0
25	12566	427.6	0
25	12566	427.7	0
25	12566	427.8	0
25	12566	427.9	0
25	12566	428	0
25	12566	428.1	0
25	12566	428.2	0
25	12566	428.3	0
25	12566	428.4	0
25	12566	428.5	0
25	12566	428.6	0
25	12566	428.7	0
25	12566	428.8	0
25	12566	428.9	0
25	12566	429	0
25	12566	429.1	0
25	12566	429.2	0
25	12566	429.3	0
25	12566	429.4	0
25	12566	429.5	0
25	12566	429.6	0
25	12566	429.7	0
25	12566	429.8	0
25	12566	429.9	0
25	12566	430	0
25	12566	430.1	0
25	12566	430.2	0
25	12566	430.3	0
25	12566	430.4	0
25	12566	430.5	0
25	12566	430.6	0
25	12566	430.7	0
25	12566	430.8	0
25	12566	430.9	0
25	12566	431	0
25	12566	431.1	0
25	12566	431.2	0
25	12566	431.3	0
25	12566	431.4	0
25	12566	431.5	0
25	12566	431.6	0
25	12566	431.7	0
25	12566	431.8	0
25	12566	431.9	0
25	12566	432	0
25	12566	432.1	0
25	12566	432.2	0
25	12566	432.3	0
25	12566	432.4	0
25	12566	432.5	0
25	12566	432.6	0
25	12566	432.7	0
25	12566	432.8	0
25	12566	432.9	0
25	12566	433	0
25	12566	433.1	0
25	12566	433.2	0
25	12566	433.3	0
25	12566	433.4	0
25	12566	433.5	0
25	12566	433.6	0
25	12566	433.7	0
25	12566	433.8	0
25	12566	433.9	0
25	12566	434	0
25	12566	434.1	0
25	12566	434.2	0
25	12566	434.3	0
25	12566	434.4	0
25	12566	434.5	0
25	12566	434.6	0
25	12566	434.7	0
25	12566	434.8	0
25	12566	434.9	0
25	12566	435	0
25	12566	435.1	0
25	12566	435.2	0
25	12566	435.3	0
25	12566	435.4	0
25	12566	435.5	0
25	12566	435.6	0
25	12566	435.7	0
25	12566	435.8	0
25	12566	435.9	0
25	12566	436	0
25	12566	436.1	0
25	12566	436.2	0
25	12566	436.3	0
25	12566	436.4	0
25	12566	436.5	0
25	12566	436.6	0
25	12566	436.7	0
25	12566	436.8	0
25	12566	436.9	0
25	12566	437	0
25	12566	437.1	0
25	12566	437.2	0
25	12566	437.3	0
25	12566	437.4	0
25	12566	437.5	0
25	12566	437.6	0
25	12566	437.7	0
25	12566	437.8	0
25	12566	437.9	0
25	12566	438	0
25	12566	438.1	0
25	12566	438.2	0
25	12566	438.3	0
25	12566	438.4	0
25	12566	438.5	0
25	12566	438.6	0
25	12566	438.7	0
25	12566	438.8	0
25	12566	438.9	0
25	12566	439	0
25	12566	439.1	0
25	12566	439.2	0
25	12566	439.3	0
25	12566	439.4	0
25	12566	439.5	0
25	12566	439.6	0
25	12566	439.7	0
25	12566	439.8	0
25	12566	439.9	0
25	12566	440	0
25	12566	440.1	0
25	12566	440.2	0
25	12566	440.3	0
25	12566	440.4	0
25	12566	440.5	0
25	12566	440.6	0
25	12566	440.7	0
25	12566	440.8	0
25	12566	440.9	0
25	12566	441	0
25	12566	441.1	0
25	12566	441.2	0
25	12566	441.3	0
25	12566	441.4	0
25	12566	441.5	0
25	12566	441.6	0
25	12566	441.7	0
25	12566	441.8	0
25	12566	441.9	0
25	12566	442	0
25	12566	442.1	0
25	12566	442.2	0
25	12566	442.3	0
25	12566	442.4	0
25	12566	442.5	0
25	12566	442.6	0
25	12566	442.7	0
25	12566	442.8	0
25	12566	442.9	0
25	12566	443	0
25	12566	443.1	0
25	12566	443.2	0
25	12566	443.3	0
25	12566	443.4	0
25	12566	443.5	0
25	12566	443.6	0
25	12566	443.7	0
25	12566	443.8	0
25	12566	443.9	0
25	12566	444	0
25	12566	444.1	0
25	12566	444.2	0
25	12566	444.3	0
25	12566	444.4	0
25	12566	444.5	0
25	12566	444.6	0
25	12566	444.7	0
25	12566	444.8	0
25	12566	444.9	0
25	12566	445	0
25	12566	445.1	0
25	12566	445.2	0
25	12566	445.3	0
25	12566	445.4	0
25	12566	445.5	0
25	12566	445.6	0
25	12566	445.7	0
25	12566	445.8	0
25	12566	445.9	0
25	12566	446	0
25	12566	446.1	0
25	12566	446.2	0
25	12566	446.3	0
25	12566	446.4	0
25	12566	446.5	0
25	12566	446.6	0
25	12566	446.7	0
25	12566	446.8	0
25	12566	446.9	0
25	12566	447	0
25	12566	447.1	0
25	12566	447.2	0
25	12566	447.3	0
25	12566	447.4	0
25	12566	447.5	0
25	12566	447.6	0
25	12566	447.7	0
25	12566	447.8	0
25	12566	447.9	0
25	12566	448	0
25	12566	448.1	0
25	12566	448.2	0
25	12566	448.3	0
25	12566	448.4	0
25	12566	448.5	0
25	12566	448.6	0
25	12566	448.7	0
25	12566	448.8	0
25	12566	448.9	0
25	12566	449	0
25	12566	449.1	0
25	12566	449.2	0
25	12566	449.3	0
25	12566	449.4	0
25	12566	449.5	0
25	12566	449.6	0
25	12566	449.7	0
25	12566	449.8	0
25	12566	449.9	0
25	12566	450	0
25	12566	450.1	0
25	12566	450.2	0
25	12566	450.3	0
25	12566	450.4	0
25	12566	450.5	0
25	12566	450.6	0
25	12566	450.7	0
25	12566	450.8	0
25	12566	450.9	0
25	12566	451	0
25	12566	451.1	0
25	12566	451.2	0
25	12566	451.3	0
25	12566	451.4	0
25	12566	451.5	0
25	12566	451.6	0
25	12566	451.7	0
25	12566	451.8	0
25	12566	451.9	0
25	12566	452	0
25	12566	452.1	0
25	12566	452.2	0
25	12566	452.3	0
25	12566	452.4	0
25	12566	452.5	0
25	12566	452.6	0
25	12566	452.7	0
25	12566	452.8	0
25	12566	452.9	0
25	12566	453	0
25	12566	453.1	0
25	12566	453.2	0
25	12566	453.3	0
25	12566	453.4	0
25	12566	453.5	0
25	12566	453.6	0
25	12566	453.7	0
25	12566	453.8	0
25	12566	453.9	0
25	12566	454	0
25	12566	454.1	0
25	12566	454.2	0
25	12566	454.3	0
25	12566	454.4	0
25	12566	454.5	0
25	12566	454.6	0
25	12566	454.7	0
25	12566	454.8	0
25	12566	454.9	0
25	12566	455	0
25	12566	455.1	0
25	12566	455.2	0
25	12566	455.3	0
25	12566	455.4	0
25	12566	455.5	0
25	12566	455.6	0
25	12566	455.7	0
25	12566	455.8	0
25	12566	455.9	0
25	12566	456	0
25	12566	456.1	0
25	12566	456.2	0
25	12566	456.3	0
25	12566	456.4	0
25	12566	456.5	0
25	12566	456.6	0
25	12566	456.7	0
25	12566	456.8	0
25	12566	456.9	0
25	12566	457	0
25	12566	457.1	0
25	12566	457.2	0
25	12566	457.3	0
25	12566	457.4	0
25	12566	457.5	0
25	12566	457.6	0
25	12566	457.7	0
25	12566	457.8	0
25	12566	457.9	0
25	12566	458	0
25	12566	458.1	0
25	12566	458.2	0
25	12566	458.3	0
25	12566	458.4	0
25	12566	458.5	0
25	12566	458.6	0
25	12566	458.7	0
25	12566	458.8	0
25	12566	458.9	0
25	12566	459	0
25	12566	459.1	0
25	12566	459.2	0
25	12566	459.3	0
25	12566	459.4	0
25	12566	459.5	0
25	12566	459.6	0
25	12566	459.7	0
25	12566	459.8	0
25	12566	459.9	0
25	12566	460	0
25	12566	460.1	0
25	12566	460.2	0
25	12566	460.3	0
25	12566	460.4	0
25	12566	460.5	0
25	12566	460.6	0
25	12566	460.7	0
25	12566	460.8	0
25	12566	460.9	0
25	12566	461	0
25	12566	461.1	0
25	12566	461.2	0
25	12566	461.3	0
25	12566	461.4	0
25	12566	461.5	0
25	12566	461.6	0
25	12566	461.7	0
25	12566	461.8	0
25	12566	461.9	0
25	12566	462	0
25	12566	462.1	0
25	12566	462.2	0
25	12566	462.3	0
25	12566	462.4	0
25	12566	462.5	0
25	12566	462.6	0
25	12566	462.7	0
25	12566	462.8	0
25	12566	462.9	0
25	12566	463	0
25	12566	463.1	0
25	12566	463.2	0
25	12566	463.3	0
25	12566	463.4	0
25	12566	463.5	0
25	12566	463.6	0
25	12566	463.7	0
25	12566	463.8	0
25	12566	463.9	0
25	12566	464	0
25	12566	464.1	0
25	12566	464.2	0
25	12566	464.3	0
25	12566	464.4	0
25	12566	464.5	0
25	12566	464.6	0
25	12566	464.7	0
25	12566	464.8	0
25	12566	464.9	0
25	12566	465	0
25	12566	465.1	0
25	12566	465.2	0
25	12566	465.3	0
25	12566	465.4	0
25	12566	465.5	0
25	12566	465.6	0
25	12566	465.7	0
25	12566	465.8	0
25	12566	465.9	0
25	12566	466	0
25	12566	466.1	0
25	12566	466.2	0
25	12566	466.3	0
25	12566	466.4	0
25	12566	466.5	0
25	12566	466.6	0
25	12566	466.7	0
25	12566	466.8	0
25	12566	466.9	0
25	12566	467	0
25	12566	467.1	0
25	12566	467.2	0
25	12566	467.3	0
25	12566	467.4	0
25	12566	467.5	0
25	12566	467.6	0
25	12566	467.7	0
25	12566	467.8	0
25	12566	467.9	0
25	12566	468	0
25	12566	468.1	0
25	12566	468.2	0
25	12566	468.3	0
25	12566	468.4	0
25	12566	468.5	0
25	12566	468.6	0
25	12566	468.7	0
25	12566	468.8	0
25	12566	468.9	0
25	12566	469	0
25	12566	469.1	0
25	12566	469.2	0
25	12566	469.3	0
25	12566	469.4	0
25	12566	469.5	0
25	12566	469.6	0
25	12566	469.7	0
25	12566	469.8	0
25	12566	469.9	0
25	12566	470	0
25	12566	470.1	0
25	12566	470.2	0
25	12566	470.3	0
25	12566	470.4	0
25	12566	470.5	0
25	12566	470.6	0
25	12566	470.7	0
25	12566	470.8	0
25	12566	470.9	0
25	12566	471	0
25	12566	471.1	0
25	12566	471.2	0
25	12566	471.3	0
25	12566	471.4	0
25	12566	471.5	0
25	12566	471.6	0
25	12566	471.7	0
25	12566	471.8	0
25	12566	471.9	0
25	12566	472	0
25	12566	472.1	0
25	12566	472.2	0
25	12566	472.3	0
25	12566	472.4	0
25	12566	472.5	0
25	12566	472.6	0
25	12566	472.7	0
25	12566	472.8	0
25	12566	472.9	0
25	12566	473	0
25	12566	473.1	0
25	12566	473.2	0
25	12566	473.3	0
25	12566	473.4	0
25	12566	473.5	0
25	12566	473.6	0
25	12566	473.7	0
25	12566	473.8	0
25	12566	473.9	0
25	12566	474	0
25	12566	474.1	0
25	12566	474.2	0
25	12566	474.3	0
25	12566	474.4	0
25	12566	474.5	0
25	12566	474.6	0
25	12566	474.7	0
25	12566	474.8	0
25	12566	474.9	0
25	12566	475	0
25	12566	475.1	0
25	12566	475.2	0
25	12566	475.3	0
25	12566	475.4	0
25	12566	475.5	0
25	12566	475.6	0
25	12566	475.7	0
25	12566	475.8	0
25	12566	475.9	0
25	12566	476	0
25	12566	476.1	0
25	12566	476.2	0
25	12566	476.3	0
25	12566	476.4	0
25	12566	476.5	0
25	12566	476.6	0
25	12566	476.7	0
25	12566	476.8	0
25	12566	476.9	0
25	12566	477	0
25	12566	477.1	0
25	12566	477.2	0
25	12566	477.3	0
25	12566	477.4	0
25	12566	477.5	0
25	12566	477.6	0
25	12566	477.7	0
25	12566	477.8	0
25	12566	477.9	0
25	12566	478	0
25	12566	478.1	0
25	12566	478.2	0
25	12566	478.3	0
25	12566	478.4	0
25	12566	478.5	0
25	12566	478.6	0
25	12566	478.7	0
25	12566	478.8	0
25	12566	478.9	0
25	12566	479	0
25	12566	479.1	0
25	12566	479.2	0
25	12566	479.3	0
25	12566	479.4	0
25	12566	479.5	0
25	12566	479.6	0
25	12566	479.7	0
25	12566	479.8	0
25	12566	479.9	0
25	12566	480	0
25	12566	480.1	0
25	12566	480.2	0
25	12566	480.3	0
25	12566	480.4	0
25	12566	480.5	0
25	12566	480.6	0
25	12566	480.7	0
25	12566	480.8	0
25	12566	480.9	0
25	12566	481	0
25	12566	481.1	0
25	12566	481.2	0
25	12566	481.3	0
25	12566	481.4	0
25	12566	481.5	0
25	12566	481.6	0
25	12566	481.7	0
25	12566	481.8	0
25	12566	481.9	0
25	12566	482	0
25	12566	482.1	0
25	12566	482.2	0
25	12566	482.3	0
25	12566	482.4	0
25	12566	482.5	0
25	12566	482.6	0
25	12566	482.7	0
25	12566	482.8	0
25	12566	482.9	0
25	12566	483	0
25	12566	483.1	0
25	12566	483.2	0
25	12566	483.3	0
25	12566	483.4	0
25	12566	483.5	0
25	12566	483.6	0
25	12566	483.7	0
25	12566	483.8	0
25	12566	483.9	0
25	12566	484	0
25	12566	484.1	0
25	12566	484.2	0
25	12566	484.3	0
25	12566	484.4	0
25	12566	484.5	0
25	12566	484.6	0
25	12566	484.7	0
25	12566	484.8	0
25	12566	484.9	0
25	12566	485	0
25	12566	485.1	0
25	12566	485.2	0
25	12566	485.3	0
25	12566	485.4	0
25	12566	485.5	0
25	12566	485.6	0
25	12566	485.7	0
25	12566	485.8	0
25	12566	485.9	0
25	12566	486	0
25	12566	486.1	0
25	12566	486.2	0
25	12566	486.3	0
25	12566	486.4	0
25	12566	486.5	0
25	12566	486.6	0
25	12566	486.7	0
25	12566	486.8	0
25	12566	486.9	0
25	12566	487	0
25	12566	487.1	0
25	12566	487.2	0
25	12566	487.3	0
25	12566	487.4	0
25	12566	487.5	0
25	12566	487.6	0
25	12566	487.7	0
25	12566	487.8	0
25	12566	487.9	0
25	12566	488	0
25	12566	488.1	0
25	12566	488.2	0
25	12566	488.3	0
25	12566	488.4	0
25	12566	488.5	0
25	12566	488.6	0
25	12566	488.7	0
25	12566	488.8	0
25	12566	488.9	0
25	12566	489	0
25	12566	489.1	0
25	12566	489.2	0
25	12566	489.3	0
25	12566	489.4	0
25	12566	489.5	0
25	12566	489.6	0
25	12566	489.7	0
25	12566	489.8	0
25	12566	489.9	0
25	12566	490	0
25	12566	490.1	0
25	12566	490.2	0
25	12566	490.3	0
25	12566	490.4	0
25	12566	490.5	0
25	12566	490.6	0
25	12566	490.7	0
25	12566	490.8	0
25	12566	490.9	0
25	12566	491	0
25	12566	491.1	0
25	12566	491.2	0
25	12566	491.3	0
25	12566	491.4	0
25	12566	491.5	0
25	12566	491.6	0
25	12566	491.7	0
25	12566	491.8	0
25	12566	491.9	0
25	12566	492	0
25	12566	492.1	0
25	12566	492.2	0
25	12566	492.3	0
25	12566	492.4	0
25	12566	492.5	0
25	12566	492.6	0
25	12566	492.7	0
25	12566	492.8	0
25	12566	492.9	0
25	12566	493	0
25	12566	493.1	0
25	12566	493.2	0
25	12566	493.3	0
25	12566	493.4	0
25	12566	493.5	0
25	12566	493.6	0
25	12566	493.7	0
25	12566	493.8	0
25	12566	493.9	0
25	12566	494	0
25	12566	494.1	0
25	12566	494.2	0
25	12566	494.3	0
25	12566	494.4	0
25	12566	494.5	0
25	12566	494.6	0
25	12566	494.7	0
25	12566	494.8	0
25	12566	494.9	0
25	12566	495	0
25	12566	495.1	0
25	12566	495.2	0
25	12566	495.3	0
25	12566	495.4	0
25	12566	495.5	0
25	12566	495.6	0
25	12566	495.7	0
25	12566	495.8	0
25	12566	495.9	0
25	12566	496	0
25	12566	496.1	0
25	12566	496.2	0
25	12566	496.3	0
25	12566	496.4	0
25	12566	496.5	0
25	12566	496.6	0
25	12566	496.7	0
25	12566	496.8	0
25	12566	496.9	0
25	12566	497	0
25	12566	497.1	0
25	12566	497.2	0
25	12566	497.3	0
25	12566	497.4	0
25	12566	497.5	0
25	12566	497.6	0
25	12566	497.7	0
25	12566	497.8	0
25	12566	497.9	0
25	12566	498	0
25	12566	498.1	0
25	12566	498.2	0
25	12566	498.3	0
25	12566	498.4	0
25	12566	498.5	0
25	12566	498.6	0
25	12566	498.7	0
25	12566	498.8	0
25	12566	498.9	0
25	12566	499	0
25	12566	499.1	0
25	12566	499.2	0
25	12566	499.3	0
25	12566	499.4	0
25	12566	499.5	0
25	12566	499.6	0
25	12566	499.7	0
25	12566	499.8	0
25	12566	499.9	0
25	12566	500	0

