file 801944 1657640730                                          
version 2
run SecureSybil-0-20220712-17:42:19-60136
attr configname SecureSybil
attr datetime 20220712-17:42:19
attr experiment SecureSybil
attr inifile omnetpp.ini
attr iterationvars ""
attr iterationvarsf ""
attr measurement ""
attr network FanetSecureSybil
attr processid 60136
attr repetition 0
attr replication #0
attr resultdir results
attr runnumber 0
attr seedset 0
param *.host[0].numApps 1
param *.host[0].app[0].typename "\"UdpBasicApp\""
param *.host[0].app[0].startTime 15s
param *.host[0].app[0].destAddresses "\"host[20] host[1]\""
param *.host[0].app[0].destPort 5000
param *.host[0].app[0].messageLength 1024B
param *.host[0].app[0].sendInterval exponential(1s)
param *.host[0].app[0].packetName "\"UDPdata\""
param *.host[20].numApps 1
param *.host[20].app[0].typename "\"UdpSink\""
param *.host[20].app[0].localPort 5000
param *.host[1].numApps 1
param *.host[1].app[0].typename "\"UdpSink\""
param *.host[1].app[0].localPort 5000
param **.wlan[*].bitrate 24Mbps
param *.configurator.addStaticRoutes false
param **.netmaskRoutes "\"\""
param **.arp.typename "\"GlobalArp\""
param *.host*.wlan[0].typename "\"AckingWirelessInterface\""
param *.host*.wlan[0].radio.transmitter.communicationRange 300m
param *.host*.wlan[0].radio.displayCommunicationRange false
param *.visualizer.osgVisualizer.typename "\"IntegratedOsgVisualizer\""
param *.visualizer.osgVisualizer.sceneVisualizer.clearColor "\"skyblue\""
param *.visualizer.osgVisualizer.sceneVisualizer.sceneImage "\"showcases/desert\""
param *.visualizer.osgVisualizer.sceneVisualizer.sceneImageSize 5000m
param *.visualizer.osgVisualizer.sceneVisualizer.axisLength 1000m
param *.visualizer.osgVisualizer.sceneVisualizer.sceneMinX -2000m
param *.visualizer.osgVisualizer.sceneVisualizer.sceneMinY -2000m
param *.visualizer.osgVisualizer.sceneVisualizer.sceneMinZ 0m
param *.visualizer.osgVisualizer.sceneVisualizer.sceneMaxX 3000m
param *.visualizer.osgVisualizer.sceneVisualizer.sceneMaxY 3000m
param *.visualizer.osgVisualizer.sceneVisualizer.sceneMaxZ 1000m
param *.visualizer.osgVisualizer.networkNodeVisualizer.displayModuleName false
param *.visualizer.*.mobilityVisualizer.displayMobility true
param *.visualizer.*.mobilityVisualizer.displayPositions true
param *.visualizer.*.mobilityVisualizer.displayOrientations false
param *.visualizer.*.mobilityVisualizer.displayVelocities true
param *.visualizer.*.mobilityVisualizer.displayMovementTrails true
param *.visualizer.*.mobilityVisualizer.animationSpeed 1
param *.visualizer.*.packetDropVisualizer.displayPacketDrops false
param *.visualizer.*.packetDropVisualizer.labelFormat "\"%n/reason: %r\""
param *.visualizer.*.packetDropVisualizer.fadeOutTime 10s
param **.constraintAreaMinX 0m
param **.constraintAreaMinY 0m
param **.constraintAreaMinZ 50m
param **.constraintAreaMaxX 1000m
param **.constraintAreaMaxY 800m
param **.constraintAreaMaxZ 200m
param *.visualizer.*.mediumVisualizer.signalPropagationAnimationSpeed 500/3e8
param *.visualizer.*.mediumVisualizer.signalTransmissionAnimationSpeed 50000/3e8
param *.visualizer.*.mediumVisualizer.displaySignals false
param *.visualizer.*.mediumVisualizer.displayTransmissions false
param *.visualizer.*.mediumVisualizer.displayReceptions false
param *.visualizer.*.mediumVisualizer.transmissionPlacementPriority 10
param *.visualizer.*.mediumVisualizer.receptionPlacementPriority 10
param *.visualizer.*.mediumVisualizer.displaySignals false
param *.visualizer.*.mediumVisualizer.signalFadingDistance 50m
param *.visualizer.*.mediumVisualizer.signalRingSize 50m
param *.visualizer.osgVisualizer.mediumVisualizer.signalShape "\"both\""
param *.host[*].osgModel "\"3d/drone.ive.100.scale.0,0,90.rot\""
param *.attacker[*].osgModel "\"3d/drone.ive.100.scale.0,0,90.rot\""
param *.host[*].mobility.typename "\"TurtleMobility\""
param *.attacker[*].mobility.typename "\"TurtleMobility\""
param *.attacker[*].mobility.turtleScript "xmldoc(\"movements.xml\")"
param *.host[*].mobility.turtleScript "xmldoc(\"movements.xml\")"
param *.attacker*.wlan[0].typename "\"AckingWirelessInterface\""
param *.attacker*.wlan[0].radio.transmitter.communicationRange 300m
param *.attacker*.wlan[0].radio.displayCommunicationRange false
param *.host*.wlan[0].radio.energyConsumer.typename "\"StateBasedEpEnergyConsumer\""
param *.attacker*.wlan[0].radio.energyConsumer.typename "\"StateBasedEpEnergyConsumer\""
param *.host[*].wlan[*].radio.energyConsumer.typename "\"StateBasedEpEnergyConsumer\""
param *.host[*].wlan[*].radio.energyConsumer.sleepPowerConsumption 0mW
param *.host[*].wlan[*].radio.energyConsumer.receiverIdlePowerConsumption 284.1176428806229mW
param *.host[*].wlan[*].radio.energyConsumer.receiverReceivingPowerConsumption 284.1176428806229mW
param *.host[*].wlan[*].radio.energyConsumer.transmitterIdlePowerConsumption 284.1176428806229mW
param *.host[*].wlan[*].radio.energyConsumer.transmitterTransmittingPowerConsumption 407.6470528287198mW
param *.host*.energyStorage.typename "\"IdealEpEnergyStorage\""
param *.attacker*.energyStorage.typename "\"IdealEpEnergyStorage\""

vector 0 FanetSecureSybil.host[0].energyStorage powerConsumption:vector ETV
attr interpolationmode sample-hold
attr source powerConsumptionChanged
attr title "Power consumption, vector"
vector 1 FanetSecureSybil.host[1].energyStorage powerConsumption:vector ETV
attr interpolationmode sample-hold
attr source powerConsumptionChanged
attr title "Power consumption, vector"
vector 2 FanetSecureSybil.host[2].energyStorage powerConsumption:vector ETV
attr interpolationmode sample-hold
attr source powerConsumptionChanged
attr title "Power consumption, vector"
vector 3 FanetSecureSybil.host[3].energyStorage powerConsumption:vector ETV
attr interpolationmode sample-hold
attr source powerConsumptionChanged
attr title "Power consumption, vector"
vector 4 FanetSecureSybil.host[4].energyStorage powerConsumption:vector ETV
attr interpolationmode sample-hold
attr source powerConsumptionChanged
attr title "Power consumption, vector"
vector 5 FanetSecureSybil.host[5].energyStorage powerConsumption:vector ETV
attr interpolationmode sample-hold
attr source powerConsumptionChanged
attr title "Power consumption, vector"
vector 6 FanetSecureSybil.host[6].energyStorage powerConsumption:vector ETV
attr interpolationmode sample-hold
attr source powerConsumptionChanged
attr title "Power consumption, vector"
vector 7 FanetSecureSybil.host[7].energyStorage powerConsumption:vector ETV
attr interpolationmode sample-hold
attr source powerConsumptionChanged
attr title "Power consumption, vector"
vector 8 FanetSecureSybil.host[8].energyStorage powerConsumption:vector ETV
attr interpolationmode sample-hold
attr source powerConsumptionChanged
attr title "Power consumption, vector"
vector 9 FanetSecureSybil.host[9].energyStorage powerConsumption:vector ETV
attr interpolationmode sample-hold
attr source powerConsumptionChanged
attr title "Power consumption, vector"
vector 10 FanetSecureSybil.host[10].energyStorage powerConsumption:vector ETV
attr interpolationmode sample-hold
attr source powerConsumptionChanged
attr title "Power consumption, vector"
vector 11 FanetSecureSybil.host[11].energyStorage powerConsumption:vector ETV
attr interpolationmode sample-hold
attr source powerConsumptionChanged
attr title "Power consumption, vector"
vector 12 FanetSecureSybil.host[12].energyStorage powerConsumption:vector ETV
attr interpolationmode sample-hold
attr source powerConsumptionChanged
attr title "Power consumption, vector"
vector 13 FanetSecureSybil.host[13].energyStorage powerConsumption:vector ETV
attr interpolationmode sample-hold
attr source powerConsumptionChanged
attr title "Power consumption, vector"
vector 14 FanetSecureSybil.host[14].energyStorage powerConsumption:vector ETV
attr interpolationmode sample-hold
attr source powerConsumptionChanged
attr title "Power consumption, vector"
vector 15 FanetSecureSybil.host[15].energyStorage powerConsumption:vector ETV
attr interpolationmode sample-hold
attr source powerConsumptionChanged
attr title "Power consumption, vector"
vector 16 FanetSecureSybil.host[16].energyStorage powerConsumption:vector ETV
attr interpolationmode sample-hold
attr source powerConsumptionChanged
attr title "Power consumption, vector"
vector 17 FanetSecureSybil.host[17].energyStorage powerConsumption:vector ETV
attr interpolationmode sample-hold
attr source powerConsumptionChanged
attr title "Power consumption, vector"
vector 18 FanetSecureSybil.host[18].energyStorage powerConsumption:vector ETV
attr interpolationmode sample-hold
attr source powerConsumptionChanged
attr title "Power consumption, vector"
vector 19 FanetSecureSybil.host[19].energyStorage powerConsumption:vector ETV
attr interpolationmode sample-hold
attr source powerConsumptionChanged
attr title "Power consumption, vector"
vector 20 FanetSecureSybil.host[20].energyStorage powerConsumption:vector ETV
attr interpolationmode sample-hold
attr source powerConsumptionChanged
attr title "Power consumption, vector"
vector 21 FanetSecureSybil.host[21].energyStorage powerConsumption:vector ETV
attr interpolationmode sample-hold
attr source powerConsumptionChanged
attr title "Power consumption, vector"
vector 22 FanetSecureSybil.host[22].energyStorage powerConsumption:vector ETV
attr interpolationmode sample-hold
attr source powerConsumptionChanged
attr title "Power consumption, vector"
vector 23 FanetSecureSybil.host[23].energyStorage powerConsumption:vector ETV
attr interpolationmode sample-hold
attr source powerConsumptionChanged
attr title "Power consumption, vector"
vector 24 FanetSecureSybil.host[24].energyStorage powerConsumption:vector ETV
attr interpolationmode sample-hold
attr source powerConsumptionChanged
attr title "Power consumption, vector"
vector 25 FanetSecureSybil.host[0].wlan[0].radio radioMode:vector ETV
attr interpolationmode sample-hold
attr source radioModeChanged
attr title "Radio mode, vector"
vector 26 FanetSecureSybil.host[0].wlan[0].radio.energyConsumer powerConsumption:vector ETV
attr interpolationmode sample-hold
attr source powerConsumptionChanged
attr title "Power consumption, vector"
vector 27 FanetSecureSybil.host[1].wlan[0].radio radioMode:vector ETV
attr interpolationmode sample-hold
attr source radioModeChanged
attr title "Radio mode, vector"
vector 28 FanetSecureSybil.host[1].wlan[0].radio.energyConsumer powerConsumption:vector ETV
attr interpolationmode sample-hold
attr source powerConsumptionChanged
attr title "Power consumption, vector"
vector 29 FanetSecureSybil.host[2].wlan[0].radio radioMode:vector ETV
attr interpolationmode sample-hold
attr source radioModeChanged
attr title "Radio mode, vector"
vector 30 FanetSecureSybil.host[2].wlan[0].radio.energyConsumer powerConsumption:vector ETV
attr interpolationmode sample-hold
attr source powerConsumptionChanged
attr title "Power consumption, vector"
vector 31 FanetSecureSybil.host[3].wlan[0].radio radioMode:vector ETV
attr interpolationmode sample-hold
attr source radioModeChanged
attr title "Radio mode, vector"
vector 32 FanetSecureSybil.host[3].wlan[0].radio.energyConsumer powerConsumption:vector ETV
attr interpolationmode sample-hold
attr source powerConsumptionChanged
attr title "Power consumption, vector"
vector 33 FanetSecureSybil.host[4].wlan[0].radio radioMode:vector ETV
attr interpolationmode sample-hold
attr source radioModeChanged
attr title "Radio mode, vector"
vector 34 FanetSecureSybil.host[4].wlan[0].radio.energyConsumer powerConsumption:vector ETV
attr interpolationmode sample-hold
attr source powerConsumptionChanged
attr title "Power consumption, vector"
vector 35 FanetSecureSybil.host[5].wlan[0].radio radioMode:vector ETV
attr interpolationmode sample-hold
attr source radioModeChanged
attr title "Radio mode, vector"
vector 36 FanetSecureSybil.host[5].wlan[0].radio.energyConsumer powerConsumption:vector ETV
attr interpolationmode sample-hold
attr source powerConsumptionChanged
attr title "Power consumption, vector"
vector 37 FanetSecureSybil.host[6].wlan[0].radio radioMode:vector ETV
attr interpolationmode sample-hold
attr source radioModeChanged
attr title "Radio mode, vector"
vector 38 FanetSecureSybil.host[6].wlan[0].radio.energyConsumer powerConsumption:vector ETV
attr interpolationmode sample-hold
attr source powerConsumptionChanged
attr title "Power consumption, vector"
vector 39 FanetSecureSybil.host[7].wlan[0].radio radioMode:vector ETV
attr interpolationmode sample-hold
attr source radioModeChanged
attr title "Radio mode, vector"
vector 40 FanetSecureSybil.host[7].wlan[0].radio.energyConsumer powerConsumption:vector ETV
attr interpolationmode sample-hold
attr source powerConsumptionChanged
attr title "Power consumption, vector"
vector 41 FanetSecureSybil.host[8].wlan[0].radio radioMode:vector ETV
attr interpolationmode sample-hold
attr source radioModeChanged
attr title "Radio mode, vector"
vector 42 FanetSecureSybil.host[8].wlan[0].radio.energyConsumer powerConsumption:vector ETV
attr interpolationmode sample-hold
attr source powerConsumptionChanged
attr title "Power consumption, vector"
vector 43 FanetSecureSybil.host[9].wlan[0].radio radioMode:vector ETV
attr interpolationmode sample-hold
attr source radioModeChanged
attr title "Radio mode, vector"
vector 44 FanetSecureSybil.host[9].wlan[0].radio.energyConsumer powerConsumption:vector ETV
attr interpolationmode sample-hold
attr source powerConsumptionChanged
attr title "Power consumption, vector"
vector 45 FanetSecureSybil.host[10].wlan[0].radio radioMode:vector ETV
attr interpolationmode sample-hold
attr source radioModeChanged
attr title "Radio mode, vector"
vector 46 FanetSecureSybil.host[10].wlan[0].radio.energyConsumer powerConsumption:vector ETV
attr interpolationmode sample-hold
attr source powerConsumptionChanged
attr title "Power consumption, vector"
vector 47 FanetSecureSybil.host[11].wlan[0].radio radioMode:vector ETV
attr interpolationmode sample-hold
attr source radioModeChanged
attr title "Radio mode, vector"
vector 48 FanetSecureSybil.host[11].wlan[0].radio.energyConsumer powerConsumption:vector ETV
attr interpolationmode sample-hold
attr source powerConsumptionChanged
attr title "Power consumption, vector"
vector 49 FanetSecureSybil.host[12].wlan[0].radio radioMode:vector ETV
attr interpolationmode sample-hold
attr source radioModeChanged
attr title "Radio mode, vector"
vector 50 FanetSecureSybil.host[12].wlan[0].radio.energyConsumer powerConsumption:vector ETV
attr interpolationmode sample-hold
attr source powerConsumptionChanged
attr title "Power consumption, vector"
vector 51 FanetSecureSybil.host[13].wlan[0].radio radioMode:vector ETV
attr interpolationmode sample-hold
attr source radioModeChanged
attr title "Radio mode, vector"
vector 52 FanetSecureSybil.host[13].wlan[0].radio.energyConsumer powerConsumption:vector ETV
attr interpolationmode sample-hold
attr source powerConsumptionChanged
attr title "Power consumption, vector"
vector 53 FanetSecureSybil.host[14].wlan[0].radio radioMode:vector ETV
attr interpolationmode sample-hold
attr source radioModeChanged
attr title "Radio mode, vector"
vector 54 FanetSecureSybil.host[14].wlan[0].radio.energyConsumer powerConsumption:vector ETV
attr interpolationmode sample-hold
attr source powerConsumptionChanged
attr title "Power consumption, vector"
vector 55 FanetSecureSybil.host[15].wlan[0].radio radioMode:vector ETV
attr interpolationmode sample-hold
attr source radioModeChanged
attr title "Radio mode, vector"
vector 56 FanetSecureSybil.host[15].wlan[0].radio.energyConsumer powerConsumption:vector ETV
attr interpolationmode sample-hold
attr source powerConsumptionChanged
attr title "Power consumption, vector"
vector 57 FanetSecureSybil.host[16].wlan[0].radio radioMode:vector ETV
attr interpolationmode sample-hold
attr source radioModeChanged
attr title "Radio mode, vector"
vector 58 FanetSecureSybil.host[16].wlan[0].radio.energyConsumer powerConsumption:vector ETV
attr interpolationmode sample-hold
attr source powerConsumptionChanged
attr title "Power consumption, vector"
vector 59 FanetSecureSybil.host[17].wlan[0].radio radioMode:vector ETV
attr interpolationmode sample-hold
attr source radioModeChanged
attr title "Radio mode, vector"
vector 60 FanetSecureSybil.host[17].wlan[0].radio.energyConsumer powerConsumption:vector ETV
attr interpolationmode sample-hold
attr source powerConsumptionChanged
attr title "Power consumption, vector"
vector 61 FanetSecureSybil.host[18].wlan[0].radio radioMode:vector ETV
attr interpolationmode sample-hold
attr source radioModeChanged
attr title "Radio mode, vector"
vector 62 FanetSecureSybil.host[18].wlan[0].radio.energyConsumer powerConsumption:vector ETV
attr interpolationmode sample-hold
attr source powerConsumptionChanged
attr title "Power consumption, vector"
vector 63 FanetSecureSybil.host[19].wlan[0].radio radioMode:vector ETV
attr interpolationmode sample-hold
attr source radioModeChanged
attr title "Radio mode, vector"
vector 64 FanetSecureSybil.host[19].wlan[0].radio.energyConsumer powerConsumption:vector ETV
attr interpolationmode sample-hold
attr source powerConsumptionChanged
attr title "Power consumption, vector"
vector 65 FanetSecureSybil.host[20].wlan[0].radio radioMode:vector ETV
attr interpolationmode sample-hold
attr source radioModeChanged
attr title "Radio mode, vector"
vector 66 FanetSecureSybil.host[20].wlan[0].radio.energyConsumer powerConsumption:vector ETV
attr interpolationmode sample-hold
attr source powerConsumptionChanged
attr title "Power consumption, vector"
vector 67 FanetSecureSybil.host[21].wlan[0].radio radioMode:vector ETV
attr interpolationmode sample-hold
attr source radioModeChanged
attr title "Radio mode, vector"
vector 68 FanetSecureSybil.host[21].wlan[0].radio.energyConsumer powerConsumption:vector ETV
attr interpolationmode sample-hold
attr source powerConsumptionChanged
attr title "Power consumption, vector"
vector 69 FanetSecureSybil.host[22].wlan[0].radio radioMode:vector ETV
attr interpolationmode sample-hold
attr source radioModeChanged
attr title "Radio mode, vector"
vector 70 FanetSecureSybil.host[22].wlan[0].radio.energyConsumer powerConsumption:vector ETV
attr interpolationmode sample-hold
attr source powerConsumptionChanged
attr title "Power consumption, vector"
vector 71 FanetSecureSybil.host[23].wlan[0].radio radioMode:vector ETV
attr interpolationmode sample-hold
attr source radioModeChanged
attr title "Radio mode, vector"
vector 72 FanetSecureSybil.host[23].wlan[0].radio.energyConsumer powerConsumption:vector ETV
attr interpolationmode sample-hold
attr source powerConsumptionChanged
attr title "Power consumption, vector"
vector 73 FanetSecureSybil.host[24].wlan[0].radio radioMode:vector ETV
attr interpolationmode sample-hold
attr source radioModeChanged
attr title "Radio mode, vector"
vector 74 FanetSecureSybil.host[24].wlan[0].radio.energyConsumer powerConsumption:vector ETV
attr interpolationmode sample-hold
attr source powerConsumptionChanged
attr title "Power consumption, vector"
vector 75 FanetSecureSybil.host[0].wlan[0].radio receptionState:vector ETV
attr interpolationmode sample-hold
attr source receptionStateChanged
attr title "Radio reception state, vector"
vector 76 FanetSecureSybil.host[0].wlan[0].radio transmissionState:vector ETV
attr interpolationmode sample-hold
attr source transmissionStateChanged
attr title "Radio transmission state, vector"
vector 77 FanetSecureSybil.host[1].wlan[0].radio receptionState:vector ETV
attr interpolationmode sample-hold
attr source receptionStateChanged
attr title "Radio reception state, vector"
vector 78 FanetSecureSybil.host[1].wlan[0].radio transmissionState:vector ETV
attr interpolationmode sample-hold
attr source transmissionStateChanged
attr title "Radio transmission state, vector"
vector 79 FanetSecureSybil.host[2].wlan[0].radio receptionState:vector ETV
attr interpolationmode sample-hold
attr source receptionStateChanged
attr title "Radio reception state, vector"
vector 80 FanetSecureSybil.host[2].wlan[0].radio transmissionState:vector ETV
attr interpolationmode sample-hold
attr source transmissionStateChanged
attr title "Radio transmission state, vector"
vector 81 FanetSecureSybil.host[3].wlan[0].radio receptionState:vector ETV
attr interpolationmode sample-hold
attr source receptionStateChanged
attr title "Radio reception state, vector"
vector 82 FanetSecureSybil.host[3].wlan[0].radio transmissionState:vector ETV
attr interpolationmode sample-hold
attr source transmissionStateChanged
attr title "Radio transmission state, vector"
vector 83 FanetSecureSybil.host[4].wlan[0].radio receptionState:vector ETV
attr interpolationmode sample-hold
attr source receptionStateChanged
attr title "Radio reception state, vector"
vector 84 FanetSecureSybil.host[4].wlan[0].radio transmissionState:vector ETV
attr interpolationmode sample-hold
attr source transmissionStateChanged
attr title "Radio transmission state, vector"
vector 85 FanetSecureSybil.host[5].wlan[0].radio receptionState:vector ETV
attr interpolationmode sample-hold
attr source receptionStateChanged
attr title "Radio reception state, vector"
vector 86 FanetSecureSybil.host[5].wlan[0].radio transmissionState:vector ETV
attr interpolationmode sample-hold
attr source transmissionStateChanged
attr title "Radio transmission state, vector"
vector 87 FanetSecureSybil.host[6].wlan[0].radio receptionState:vector ETV
attr interpolationmode sample-hold
attr source receptionStateChanged
attr title "Radio reception state, vector"
vector 88 FanetSecureSybil.host[6].wlan[0].radio transmissionState:vector ETV
attr interpolationmode sample-hold
attr source transmissionStateChanged
attr title "Radio transmission state, vector"
vector 89 FanetSecureSybil.host[7].wlan[0].radio receptionState:vector ETV
attr interpolationmode sample-hold
attr source receptionStateChanged
attr title "Radio reception state, vector"
vector 90 FanetSecureSybil.host[7].wlan[0].radio transmissionState:vector ETV
attr interpolationmode sample-hold
attr source transmissionStateChanged
attr title "Radio transmission state, vector"
vector 91 FanetSecureSybil.host[8].wlan[0].radio receptionState:vector ETV
attr interpolationmode sample-hold
attr source receptionStateChanged
attr title "Radio reception state, vector"
vector 92 FanetSecureSybil.host[8].wlan[0].radio transmissionState:vector ETV
attr interpolationmode sample-hold
attr source transmissionStateChanged
attr title "Radio transmission state, vector"
vector 93 FanetSecureSybil.host[9].wlan[0].radio receptionState:vector ETV
attr interpolationmode sample-hold
attr source receptionStateChanged
attr title "Radio reception state, vector"
vector 94 FanetSecureSybil.host[9].wlan[0].radio transmissionState:vector ETV
attr interpolationmode sample-hold
attr source transmissionStateChanged
attr title "Radio transmission state, vector"
vector 95 FanetSecureSybil.host[10].wlan[0].radio receptionState:vector ETV
attr interpolationmode sample-hold
attr source receptionStateChanged
attr title "Radio reception state, vector"
vector 96 FanetSecureSybil.host[10].wlan[0].radio transmissionState:vector ETV
attr interpolationmode sample-hold
attr source transmissionStateChanged
attr title "Radio transmission state, vector"
vector 97 FanetSecureSybil.host[11].wlan[0].radio receptionState:vector ETV
attr interpolationmode sample-hold
attr source receptionStateChanged
attr title "Radio reception state, vector"
vector 98 FanetSecureSybil.host[11].wlan[0].radio transmissionState:vector ETV
attr interpolationmode sample-hold
attr source transmissionStateChanged
attr title "Radio transmission state, vector"
vector 99 FanetSecureSybil.host[12].wlan[0].radio receptionState:vector ETV
attr interpolationmode sample-hold
attr source receptionStateChanged
attr title "Radio reception state, vector"
vector 100 FanetSecureSybil.host[12].wlan[0].radio transmissionState:vector ETV
attr interpolationmode sample-hold
attr source transmissionStateChanged
attr title "Radio transmission state, vector"
vector 101 FanetSecureSybil.host[13].wlan[0].radio receptionState:vector ETV
attr interpolationmode sample-hold
attr source receptionStateChanged
attr title "Radio reception state, vector"
vector 102 FanetSecureSybil.host[13].wlan[0].radio transmissionState:vector ETV
attr interpolationmode sample-hold
attr source transmissionStateChanged
attr title "Radio transmission state, vector"
vector 103 FanetSecureSybil.host[14].wlan[0].radio receptionState:vector ETV
attr interpolationmode sample-hold
attr source receptionStateChanged
attr title "Radio reception state, vector"
vector 104 FanetSecureSybil.host[14].wlan[0].radio transmissionState:vector ETV
attr interpolationmode sample-hold
attr source transmissionStateChanged
attr title "Radio transmission state, vector"
vector 105 FanetSecureSybil.host[15].wlan[0].radio receptionState:vector ETV
attr interpolationmode sample-hold
attr source receptionStateChanged
attr title "Radio reception state, vector"
vector 106 FanetSecureSybil.host[15].wlan[0].radio transmissionState:vector ETV
attr interpolationmode sample-hold
attr source transmissionStateChanged
attr title "Radio transmission state, vector"
vector 107 FanetSecureSybil.host[16].wlan[0].radio receptionState:vector ETV
attr interpolationmode sample-hold
attr source receptionStateChanged
attr title "Radio reception state, vector"
vector 108 FanetSecureSybil.host[16].wlan[0].radio transmissionState:vector ETV
attr interpolationmode sample-hold
attr source transmissionStateChanged
attr title "Radio transmission state, vector"
vector 109 FanetSecureSybil.host[17].wlan[0].radio receptionState:vector ETV
attr interpolationmode sample-hold
attr source receptionStateChanged
attr title "Radio reception state, vector"
vector 110 FanetSecureSybil.host[17].wlan[0].radio transmissionState:vector ETV
attr interpolationmode sample-hold
attr source transmissionStateChanged
attr title "Radio transmission state, vector"
vector 111 FanetSecureSybil.host[18].wlan[0].radio receptionState:vector ETV
attr interpolationmode sample-hold
attr source receptionStateChanged
attr title "Radio reception state, vector"
vector 112 FanetSecureSybil.host[18].wlan[0].radio transmissionState:vector ETV
attr interpolationmode sample-hold
attr source transmissionStateChanged
attr title "Radio transmission state, vector"
vector 113 FanetSecureSybil.host[19].wlan[0].radio receptionState:vector ETV
attr interpolationmode sample-hold
attr source receptionStateChanged
attr title "Radio reception state, vector"
vector 114 FanetSecureSybil.host[19].wlan[0].radio transmissionState:vector ETV
attr interpolationmode sample-hold
attr source transmissionStateChanged
attr title "Radio transmission state, vector"
vector 115 FanetSecureSybil.host[20].wlan[0].radio receptionState:vector ETV
attr interpolationmode sample-hold
attr source receptionStateChanged
attr title "Radio reception state, vector"
vector 116 FanetSecureSybil.host[20].wlan[0].radio transmissionState:vector ETV
attr interpolationmode sample-hold
attr source transmissionStateChanged
attr title "Radio transmission state, vector"
vector 117 FanetSecureSybil.host[21].wlan[0].radio receptionState:vector ETV
attr interpolationmode sample-hold
attr source receptionStateChanged
attr title "Radio reception state, vector"
vector 118 FanetSecureSybil.host[21].wlan[0].radio transmissionState:vector ETV
attr interpolationmode sample-hold
attr source transmissionStateChanged
attr title "Radio transmission state, vector"
vector 119 FanetSecureSybil.host[22].wlan[0].radio receptionState:vector ETV
attr interpolationmode sample-hold
attr source receptionStateChanged
attr title "Radio reception state, vector"
vector 120 FanetSecureSybil.host[22].wlan[0].radio transmissionState:vector ETV
attr interpolationmode sample-hold
attr source transmissionStateChanged
attr title "Radio transmission state, vector"
vector 121 FanetSecureSybil.host[23].wlan[0].radio receptionState:vector ETV
attr interpolationmode sample-hold
attr source receptionStateChanged
attr title "Radio reception state, vector"
vector 122 FanetSecureSybil.host[23].wlan[0].radio transmissionState:vector ETV
attr interpolationmode sample-hold
attr source transmissionStateChanged
attr title "Radio transmission state, vector"
vector 123 FanetSecureSybil.host[24].wlan[0].radio receptionState:vector ETV
attr interpolationmode sample-hold
attr source receptionStateChanged
attr title "Radio reception state, vector"
vector 124 FanetSecureSybil.host[24].wlan[0].radio transmissionState:vector ETV
attr interpolationmode sample-hold
attr source transmissionStateChanged
attr title "Radio transmission state, vector"
vector 125 FanetSecureSybil.host[15].wlan[0].mac rcvdPkFromHl:vector(packetBytes) ETV
attr interpolationmode none
attr source packetReceivedFromUpper
attr title "packets received from higher layer, vector(packetBytes)"
vector 126 FanetSecureSybil.host[15].wlan[0].mac.queue packetPushed:vector(packetBytes) ETV
attr interpolationmode none
attr title "packet pushed, vector(packetBytes)"
vector 127 FanetSecureSybil.host[15].wlan[0].mac.queue queueLength:vector ETV
attr interpolationmode sample-hold
attr source "count(packetPushed) - count(packetPopped) - count(packetRemoved) - count(packetDropped)"
attr title "queue length, vector"
vector 128 FanetSecureSybil.host[15].wlan[0].mac.queue packetPopped:vector(packetBytes) ETV
attr interpolationmode none
attr title "packet popped, vector(packetBytes)"
vector 129 FanetSecureSybil.host[15].wlan[0].mac.queue queueingTime:vector ETV
attr interpolationmode none
attr source queueingTime(packetPopped)
attr title "queueing times, vector"
attr unit s
vector 130 FanetSecureSybil.host[15].wlan[0].mac sentDownPk:vector(packetBytes) ETV
attr interpolationmode none
attr source packetSentToLower
attr title "packets sent to lower layer, vector(packetBytes)"
vector 131 FanetSecureSybil.host[15].energyStorage residualEnergyCapacity:vector ETV
attr interpolationmode linear
attr source residualEnergyCapacityChanged
attr title "Residual energy capacity, vector"
vector 132 FanetSecureSybil.host[1].energyStorage residualEnergyCapacity:vector ETV
attr interpolationmode linear
attr source residualEnergyCapacityChanged
attr title "Residual energy capacity, vector"
vector 133 FanetSecureSybil.host[20].energyStorage residualEnergyCapacity:vector ETV
attr interpolationmode linear
attr source residualEnergyCapacityChanged
attr title "Residual energy capacity, vector"
vector 134 FanetSecureSybil.host[1].wlan[0].mac rcvdPkFromLl:vector(packetBytes) ETV
attr interpolationmode none
attr source packetReceivedFromLower
attr title "packets received from lower layer, vector(packetBytes)"
vector 135 FanetSecureSybil.host[1].wlan[0].mac passedUpPk:vector(packetBytes) ETV
attr interpolationmode none
attr source packetSentToUpper
attr title "packets passed to higher layer, vector(packetBytes)"
vector 136 FanetSecureSybil.host[20].wlan[0].mac rcvdPkFromLl:vector(packetBytes) ETV
attr interpolationmode none
attr source packetReceivedFromLower
attr title "packets received from lower layer, vector(packetBytes)"
vector 137 FanetSecureSybil.host[20].wlan[0].mac passedUpPk:vector(packetBytes) ETV
attr interpolationmode none
attr source packetSentToUpper
attr title "packets passed to higher layer, vector(packetBytes)"
vector 138 FanetSecureSybil.host[17].wlan[0].mac rcvdPkFromHl:vector(packetBytes) ETV
attr interpolationmode none
attr source packetReceivedFromUpper
attr title "packets received from higher layer, vector(packetBytes)"
vector 139 FanetSecureSybil.host[17].wlan[0].mac.queue packetPushed:vector(packetBytes) ETV
attr interpolationmode none
attr title "packet pushed, vector(packetBytes)"
vector 140 FanetSecureSybil.host[17].wlan[0].mac.queue queueLength:vector ETV
attr interpolationmode sample-hold
attr source "count(packetPushed) - count(packetPopped) - count(packetRemoved) - count(packetDropped)"
attr title "queue length, vector"
vector 141 FanetSecureSybil.host[17].wlan[0].mac.queue packetPopped:vector(packetBytes) ETV
attr interpolationmode none
attr title "packet popped, vector(packetBytes)"
vector 142 FanetSecureSybil.host[17].wlan[0].mac.queue queueingTime:vector ETV
attr interpolationmode none
attr source queueingTime(packetPopped)
attr title "queueing times, vector"
attr unit s
vector 143 FanetSecureSybil.host[17].wlan[0].mac sentDownPk:vector(packetBytes) ETV
attr interpolationmode none
attr source packetSentToLower
attr title "packets sent to lower layer, vector(packetBytes)"
vector 144 FanetSecureSybil.host[17].energyStorage residualEnergyCapacity:vector ETV
attr interpolationmode linear
attr source residualEnergyCapacityChanged
attr title "Residual energy capacity, vector"
vector 145 FanetSecureSybil.host[10].energyStorage residualEnergyCapacity:vector ETV
attr interpolationmode linear
attr source residualEnergyCapacityChanged
attr title "Residual energy capacity, vector"
vector 146 FanetSecureSybil.host[8].energyStorage residualEnergyCapacity:vector ETV
attr interpolationmode linear
attr source residualEnergyCapacityChanged
attr title "Residual energy capacity, vector"
vector 147 FanetSecureSybil.host[5].energyStorage residualEnergyCapacity:vector ETV
attr interpolationmode linear
attr source residualEnergyCapacityChanged
attr title "Residual energy capacity, vector"
vector 148 FanetSecureSybil.host[24].energyStorage residualEnergyCapacity:vector ETV
attr interpolationmode linear
attr source residualEnergyCapacityChanged
attr title "Residual energy capacity, vector"
vector 149 FanetSecureSybil.host[12].energyStorage residualEnergyCapacity:vector ETV
attr interpolationmode linear
attr source residualEnergyCapacityChanged
attr title "Residual energy capacity, vector"
vector 150 FanetSecureSybil.host[21].energyStorage residualEnergyCapacity:vector ETV
attr interpolationmode linear
attr source residualEnergyCapacityChanged
attr title "Residual energy capacity, vector"
vector 151 FanetSecureSybil.host[10].wlan[0].mac rcvdPkFromLl:vector(packetBytes) ETV
attr interpolationmode none
attr source packetReceivedFromLower
attr title "packets received from lower layer, vector(packetBytes)"
vector 152 FanetSecureSybil.host[10].wlan[0].mac passedUpPk:vector(packetBytes) ETV
attr interpolationmode none
attr source packetSentToUpper
attr title "packets passed to higher layer, vector(packetBytes)"
vector 153 FanetSecureSybil.host[8].wlan[0].mac rcvdPkFromLl:vector(packetBytes) ETV
attr interpolationmode none
attr source packetReceivedFromLower
attr title "packets received from lower layer, vector(packetBytes)"
vector 154 FanetSecureSybil.host[8].wlan[0].mac passedUpPk:vector(packetBytes) ETV
attr interpolationmode none
attr source packetSentToUpper
attr title "packets passed to higher layer, vector(packetBytes)"
vector 155 FanetSecureSybil.host[5].wlan[0].mac rcvdPkFromLl:vector(packetBytes) ETV
attr interpolationmode none
attr source packetReceivedFromLower
attr title "packets received from lower layer, vector(packetBytes)"
vector 156 FanetSecureSybil.host[5].wlan[0].mac passedUpPk:vector(packetBytes) ETV
attr interpolationmode none
attr source packetSentToUpper
attr title "packets passed to higher layer, vector(packetBytes)"
vector 157 FanetSecureSybil.host[24].wlan[0].mac rcvdPkFromLl:vector(packetBytes) ETV
attr interpolationmode none
attr source packetReceivedFromLower
attr title "packets received from lower layer, vector(packetBytes)"
vector 158 FanetSecureSybil.host[24].wlan[0].mac passedUpPk:vector(packetBytes) ETV
attr interpolationmode none
attr source packetSentToUpper
attr title "packets passed to higher layer, vector(packetBytes)"
vector 159 FanetSecureSybil.host[12].wlan[0].mac rcvdPkFromLl:vector(packetBytes) ETV
attr interpolationmode none
attr source packetReceivedFromLower
attr title "packets received from lower layer, vector(packetBytes)"
vector 160 FanetSecureSybil.host[12].wlan[0].mac passedUpPk:vector(packetBytes) ETV
attr interpolationmode none
attr source packetSentToUpper
attr title "packets passed to higher layer, vector(packetBytes)"
vector 161 FanetSecureSybil.host[21].wlan[0].mac rcvdPkFromLl:vector(packetBytes) ETV
attr interpolationmode none
attr source packetReceivedFromLower
attr title "packets received from lower layer, vector(packetBytes)"
vector 162 FanetSecureSybil.host[21].wlan[0].mac passedUpPk:vector(packetBytes) ETV
attr interpolationmode none
attr source packetSentToUpper
attr title "packets passed to higher layer, vector(packetBytes)"
vector 163 FanetSecureSybil.host[13].wlan[0].mac rcvdPkFromHl:vector(packetBytes) ETV
attr interpolationmode none
attr source packetReceivedFromUpper
attr title "packets received from higher layer, vector(packetBytes)"
vector 164 FanetSecureSybil.host[13].wlan[0].mac.queue packetPushed:vector(packetBytes) ETV
attr interpolationmode none
attr title "packet pushed, vector(packetBytes)"
vector 165 FanetSecureSybil.host[13].wlan[0].mac.queue queueLength:vector ETV
attr interpolationmode sample-hold
attr source "count(packetPushed) - count(packetPopped) - count(packetRemoved) - count(packetDropped)"
attr title "queue length, vector"
vector 166 FanetSecureSybil.host[13].wlan[0].mac.queue packetPopped:vector(packetBytes) ETV
attr interpolationmode none
attr title "packet popped, vector(packetBytes)"
vector 167 FanetSecureSybil.host[13].wlan[0].mac.queue queueingTime:vector ETV
attr interpolationmode none
attr source queueingTime(packetPopped)
attr title "queueing times, vector"
attr unit s
vector 168 FanetSecureSybil.host[13].wlan[0].mac sentDownPk:vector(packetBytes) ETV
attr interpolationmode none
attr source packetSentToLower
attr title "packets sent to lower layer, vector(packetBytes)"
vector 169 FanetSecureSybil.host[13].energyStorage residualEnergyCapacity:vector ETV
attr interpolationmode linear
attr source residualEnergyCapacityChanged
attr title "Residual energy capacity, vector"
vector 170 FanetSecureSybil.host[0].energyStorage residualEnergyCapacity:vector ETV
attr interpolationmode linear
attr source residualEnergyCapacityChanged
attr title "Residual energy capacity, vector"
vector 171 FanetSecureSybil.host[9].energyStorage residualEnergyCapacity:vector ETV
attr interpolationmode linear
attr source residualEnergyCapacityChanged
attr title "Residual energy capacity, vector"
vector 172 FanetSecureSybil.host[2].energyStorage residualEnergyCapacity:vector ETV
attr interpolationmode linear
attr source residualEnergyCapacityChanged
attr title "Residual energy capacity, vector"
vector 173 FanetSecureSybil.host[3].energyStorage residualEnergyCapacity:vector ETV
attr interpolationmode linear
attr source residualEnergyCapacityChanged
attr title "Residual energy capacity, vector"
vector 174 FanetSecureSybil.host[16].energyStorage residualEnergyCapacity:vector ETV
attr interpolationmode linear
attr source residualEnergyCapacityChanged
attr title "Residual energy capacity, vector"
vector 175 FanetSecureSybil.host[0].wlan[0].mac rcvdPkFromLl:vector(packetBytes) ETV
attr interpolationmode none
attr source packetReceivedFromLower
attr title "packets received from lower layer, vector(packetBytes)"
vector 176 FanetSecureSybil.host[0].wlan[0].mac passedUpPk:vector(packetBytes) ETV
attr interpolationmode none
attr source packetSentToUpper
attr title "packets passed to higher layer, vector(packetBytes)"
vector 177 FanetSecureSybil.host[9].wlan[0].mac rcvdPkFromLl:vector(packetBytes) ETV
attr interpolationmode none
attr source packetReceivedFromLower
attr title "packets received from lower layer, vector(packetBytes)"
vector 178 FanetSecureSybil.host[9].wlan[0].mac passedUpPk:vector(packetBytes) ETV
attr interpolationmode none
attr source packetSentToUpper
attr title "packets passed to higher layer, vector(packetBytes)"
vector 179 FanetSecureSybil.host[2].wlan[0].mac rcvdPkFromLl:vector(packetBytes) ETV
attr interpolationmode none
attr source packetReceivedFromLower
attr title "packets received from lower layer, vector(packetBytes)"
vector 180 FanetSecureSybil.host[2].wlan[0].mac passedUpPk:vector(packetBytes) ETV
attr interpolationmode none
attr source packetSentToUpper
attr title "packets passed to higher layer, vector(packetBytes)"
vector 181 FanetSecureSybil.host[3].wlan[0].mac rcvdPkFromLl:vector(packetBytes) ETV
attr interpolationmode none
attr source packetReceivedFromLower
attr title "packets received from lower layer, vector(packetBytes)"
vector 182 FanetSecureSybil.host[3].wlan[0].mac passedUpPk:vector(packetBytes) ETV
attr interpolationmode none
attr source packetSentToUpper
attr title "packets passed to higher layer, vector(packetBytes)"
vector 183 FanetSecureSybil.host[16].wlan[0].mac rcvdPkFromLl:vector(packetBytes) ETV
attr interpolationmode none
attr source packetReceivedFromLower
attr title "packets received from lower layer, vector(packetBytes)"
vector 184 FanetSecureSybil.host[16].wlan[0].mac passedUpPk:vector(packetBytes) ETV
attr interpolationmode none
attr source packetSentToUpper
attr title "packets passed to higher layer, vector(packetBytes)"
vector 185 FanetSecureSybil.host[18].wlan[0].mac rcvdPkFromHl:vector(packetBytes) ETV
attr interpolationmode none
attr source packetReceivedFromUpper
attr title "packets received from higher layer, vector(packetBytes)"
vector 186 FanetSecureSybil.host[18].wlan[0].mac.queue packetPushed:vector(packetBytes) ETV
attr interpolationmode none
attr title "packet pushed, vector(packetBytes)"
vector 187 FanetSecureSybil.host[18].wlan[0].mac.queue queueLength:vector ETV
attr interpolationmode sample-hold
attr source "count(packetPushed) - count(packetPopped) - count(packetRemoved) - count(packetDropped)"
attr title "queue length, vector"
vector 188 FanetSecureSybil.host[18].wlan[0].mac.queue packetPopped:vector(packetBytes) ETV
attr interpolationmode none
attr title "packet popped, vector(packetBytes)"
vector 189 FanetSecureSybil.host[18].wlan[0].mac.queue queueingTime:vector ETV
attr interpolationmode none
attr source queueingTime(packetPopped)
attr title "queueing times, vector"
attr unit s
vector 190 FanetSecureSybil.host[18].wlan[0].mac sentDownPk:vector(packetBytes) ETV
attr interpolationmode none
attr source packetSentToLower
attr title "packets sent to lower layer, vector(packetBytes)"
vector 191 FanetSecureSybil.host[18].energyStorage residualEnergyCapacity:vector ETV
attr interpolationmode linear
attr source residualEnergyCapacityChanged
attr title "Residual energy capacity, vector"
vector 192 FanetSecureSybil.host[22].energyStorage residualEnergyCapacity:vector ETV
attr interpolationmode linear
attr source residualEnergyCapacityChanged
attr title "Residual energy capacity, vector"
vector 193 FanetSecureSybil.host[14].energyStorage residualEnergyCapacity:vector ETV
attr interpolationmode linear
attr source residualEnergyCapacityChanged
attr title "Residual energy capacity, vector"
vector 194 FanetSecureSybil.host[19].energyStorage residualEnergyCapacity:vector ETV
attr interpolationmode linear
attr source residualEnergyCapacityChanged
attr title "Residual energy capacity, vector"
vector 195 FanetSecureSybil.host[22].wlan[0].mac rcvdPkFromLl:vector(packetBytes) ETV
attr interpolationmode none
attr source packetReceivedFromLower
attr title "packets received from lower layer, vector(packetBytes)"
vector 196 FanetSecureSybil.host[22].wlan[0].mac passedUpPk:vector(packetBytes) ETV
attr interpolationmode none
attr source packetSentToUpper
attr title "packets passed to higher layer, vector(packetBytes)"
vector 197 FanetSecureSybil.host[14].wlan[0].mac rcvdPkFromLl:vector(packetBytes) ETV
attr interpolationmode none
attr source packetReceivedFromLower
attr title "packets received from lower layer, vector(packetBytes)"
vector 198 FanetSecureSybil.host[14].wlan[0].mac passedUpPk:vector(packetBytes) ETV
attr interpolationmode none
attr source packetSentToUpper
attr title "packets passed to higher layer, vector(packetBytes)"
vector 199 FanetSecureSybil.host[19].wlan[0].mac rcvdPkFromLl:vector(packetBytes) ETV
attr interpolationmode none
attr source packetReceivedFromLower
attr title "packets received from lower layer, vector(packetBytes)"
vector 200 FanetSecureSybil.host[19].wlan[0].mac passedUpPk:vector(packetBytes) ETV
attr interpolationmode none
attr source packetSentToUpper
attr title "packets passed to higher layer, vector(packetBytes)"
vector 201 FanetSecureSybil.host[11].wlan[0].mac rcvdPkFromHl:vector(packetBytes) ETV
attr interpolationmode none
attr source packetReceivedFromUpper
attr title "packets received from higher layer, vector(packetBytes)"
vector 202 FanetSecureSybil.host[11].wlan[0].mac.queue packetPushed:vector(packetBytes) ETV
attr interpolationmode none
attr title "packet pushed, vector(packetBytes)"
vector 203 FanetSecureSybil.host[11].wlan[0].mac.queue queueLength:vector ETV
attr interpolationmode sample-hold
attr source "count(packetPushed) - count(packetPopped) - count(packetRemoved) - count(packetDropped)"
attr title "queue length, vector"
vector 204 FanetSecureSybil.host[11].wlan[0].mac.queue packetPopped:vector(packetBytes) ETV
attr interpolationmode none
attr title "packet popped, vector(packetBytes)"
vector 205 FanetSecureSybil.host[11].wlan[0].mac.queue queueingTime:vector ETV
attr interpolationmode none
attr source queueingTime(packetPopped)
attr title "queueing times, vector"
attr unit s
vector 206 FanetSecureSybil.host[11].wlan[0].mac sentDownPk:vector(packetBytes) ETV
attr interpolationmode none
attr source packetSentToLower
attr title "packets sent to lower layer, vector(packetBytes)"
vector 207 FanetSecureSybil.host[11].energyStorage residualEnergyCapacity:vector ETV
attr interpolationmode linear
attr source residualEnergyCapacityChanged
attr title "Residual energy capacity, vector"
vector 208 FanetSecureSybil.host[4].energyStorage residualEnergyCapacity:vector ETV
attr interpolationmode linear
attr source residualEnergyCapacityChanged
attr title "Residual energy capacity, vector"
vector 209 FanetSecureSybil.host[4].wlan[0].mac rcvdPkFromLl:vector(packetBytes) ETV
attr interpolationmode none
attr source packetReceivedFromLower
attr title "packets received from lower layer, vector(packetBytes)"
vector 210 FanetSecureSybil.host[4].wlan[0].mac passedUpPk:vector(packetBytes) ETV
attr interpolationmode none
attr source packetSentToUpper
attr title "packets passed to higher layer, vector(packetBytes)"
vector 211 FanetSecureSybil.host[8].wlan[0].mac rcvdPkFromHl:vector(packetBytes) ETV
attr interpolationmode none
attr source packetReceivedFromUpper
attr title "packets received from higher layer, vector(packetBytes)"
vector 212 FanetSecureSybil.host[8].wlan[0].mac.queue packetPushed:vector(packetBytes) ETV
attr interpolationmode none
attr title "packet pushed, vector(packetBytes)"
vector 213 FanetSecureSybil.host[8].wlan[0].mac.queue queueLength:vector ETV
attr interpolationmode sample-hold
attr source "count(packetPushed) - count(packetPopped) - count(packetRemoved) - count(packetDropped)"
attr title "queue length, vector"
vector 214 FanetSecureSybil.host[8].wlan[0].mac.queue packetPopped:vector(packetBytes) ETV
attr interpolationmode none
attr title "packet popped, vector(packetBytes)"
vector 215 FanetSecureSybil.host[8].wlan[0].mac.queue queueingTime:vector ETV
attr interpolationmode none
attr source queueingTime(packetPopped)
attr title "queueing times, vector"
attr unit s
vector 216 FanetSecureSybil.host[8].wlan[0].mac sentDownPk:vector(packetBytes) ETV
attr interpolationmode none
attr source packetSentToLower
attr title "packets sent to lower layer, vector(packetBytes)"
vector 217 FanetSecureSybil.host[17].wlan[0].mac rcvdPkFromLl:vector(packetBytes) ETV
attr interpolationmode none
attr source packetReceivedFromLower
attr title "packets received from lower layer, vector(packetBytes)"
vector 218 FanetSecureSybil.host[17].wlan[0].mac passedUpPk:vector(packetBytes) ETV
attr interpolationmode none
attr source packetSentToUpper
attr title "packets passed to higher layer, vector(packetBytes)"
vector 219 FanetSecureSybil.host[12].wlan[0].mac rcvdPkFromHl:vector(packetBytes) ETV
attr interpolationmode none
attr source packetReceivedFromUpper
attr title "packets received from higher layer, vector(packetBytes)"
vector 220 FanetSecureSybil.host[12].wlan[0].mac.queue packetPushed:vector(packetBytes) ETV
attr interpolationmode none
attr title "packet pushed, vector(packetBytes)"
vector 221 FanetSecureSybil.host[12].wlan[0].mac.queue queueLength:vector ETV
attr interpolationmode sample-hold
attr source "count(packetPushed) - count(packetPopped) - count(packetRemoved) - count(packetDropped)"
attr title "queue length, vector"
vector 222 FanetSecureSybil.host[12].wlan[0].mac.queue packetPopped:vector(packetBytes) ETV
attr interpolationmode none
attr title "packet popped, vector(packetBytes)"
vector 223 FanetSecureSybil.host[12].wlan[0].mac.queue queueingTime:vector ETV
attr interpolationmode none
attr source queueingTime(packetPopped)
attr title "queueing times, vector"
attr unit s
vector 224 FanetSecureSybil.host[12].wlan[0].mac sentDownPk:vector(packetBytes) ETV
attr interpolationmode none
attr source packetSentToLower
attr title "packets sent to lower layer, vector(packetBytes)"
vector 225 FanetSecureSybil.host[18].wlan[0].mac rcvdPkFromLl:vector(packetBytes) ETV
attr interpolationmode none
attr source packetReceivedFromLower
attr title "packets received from lower layer, vector(packetBytes)"
vector 226 FanetSecureSybil.host[18].wlan[0].mac passedUpPk:vector(packetBytes) ETV
attr interpolationmode none
attr source packetSentToUpper
attr title "packets passed to higher layer, vector(packetBytes)"
vector 227 FanetSecureSybil.host[19].wlan[0].mac rcvdPkFromHl:vector(packetBytes) ETV
attr interpolationmode none
attr source packetReceivedFromUpper
attr title "packets received from higher layer, vector(packetBytes)"
vector 228 FanetSecureSybil.host[19].wlan[0].mac.queue packetPushed:vector(packetBytes) ETV
attr interpolationmode none
attr title "packet pushed, vector(packetBytes)"
vector 229 FanetSecureSybil.host[19].wlan[0].mac.queue queueLength:vector ETV
attr interpolationmode sample-hold
attr source "count(packetPushed) - count(packetPopped) - count(packetRemoved) - count(packetDropped)"
attr title "queue length, vector"
vector 230 FanetSecureSybil.host[19].wlan[0].mac.queue packetPopped:vector(packetBytes) ETV
attr interpolationmode none
attr title "packet popped, vector(packetBytes)"
vector 231 FanetSecureSybil.host[19].wlan[0].mac.queue queueingTime:vector ETV
attr interpolationmode none
attr source queueingTime(packetPopped)
attr title "queueing times, vector"
attr unit s
vector 232 FanetSecureSybil.host[19].wlan[0].mac sentDownPk:vector(packetBytes) ETV
attr interpolationmode none
attr source packetSentToLower
attr title "packets sent to lower layer, vector(packetBytes)"
vector 233 FanetSecureSybil.host[11].wlan[0].mac rcvdPkFromLl:vector(packetBytes) ETV
attr interpolationmode none
attr source packetReceivedFromLower
attr title "packets received from lower layer, vector(packetBytes)"
vector 234 FanetSecureSybil.host[11].wlan[0].mac passedUpPk:vector(packetBytes) ETV
attr interpolationmode none
attr source packetSentToUpper
attr title "packets passed to higher layer, vector(packetBytes)"
vector 235 FanetSecureSybil.host[23].wlan[0].mac rcvdPkFromHl:vector(packetBytes) ETV
attr interpolationmode none
attr source packetReceivedFromUpper
attr title "packets received from higher layer, vector(packetBytes)"
vector 236 FanetSecureSybil.host[23].wlan[0].mac.queue packetPushed:vector(packetBytes) ETV
attr interpolationmode none
attr title "packet pushed, vector(packetBytes)"
vector 237 FanetSecureSybil.host[23].wlan[0].mac.queue queueLength:vector ETV
attr interpolationmode sample-hold
attr source "count(packetPushed) - count(packetPopped) - count(packetRemoved) - count(packetDropped)"
attr title "queue length, vector"
vector 238 FanetSecureSybil.host[23].wlan[0].mac.queue packetPopped:vector(packetBytes) ETV
attr interpolationmode none
attr title "packet popped, vector(packetBytes)"
vector 239 FanetSecureSybil.host[23].wlan[0].mac.queue queueingTime:vector ETV
attr interpolationmode none
attr source queueingTime(packetPopped)
attr title "queueing times, vector"
attr unit s
vector 240 FanetSecureSybil.host[23].wlan[0].mac sentDownPk:vector(packetBytes) ETV
attr interpolationmode none
attr source packetSentToLower
attr title "packets sent to lower layer, vector(packetBytes)"
vector 241 FanetSecureSybil.host[23].energyStorage residualEnergyCapacity:vector ETV
attr interpolationmode linear
attr source residualEnergyCapacityChanged
attr title "Residual energy capacity, vector"
vector 242 FanetSecureSybil.host[7].energyStorage residualEnergyCapacity:vector ETV
attr interpolationmode linear
attr source residualEnergyCapacityChanged
attr title "Residual energy capacity, vector"
vector 243 FanetSecureSybil.host[7].wlan[0].mac rcvdPkFromLl:vector(packetBytes) ETV
attr interpolationmode none
attr source packetReceivedFromLower
attr title "packets received from lower layer, vector(packetBytes)"
vector 244 FanetSecureSybil.host[7].wlan[0].mac passedUpPk:vector(packetBytes) ETV
attr interpolationmode none
attr source packetSentToUpper
attr title "packets passed to higher layer, vector(packetBytes)"
vector 245 FanetSecureSybil.host[22].wlan[0].mac rcvdPkFromHl:vector(packetBytes) ETV
attr interpolationmode none
attr source packetReceivedFromUpper
attr title "packets received from higher layer, vector(packetBytes)"
vector 246 FanetSecureSybil.host[22].wlan[0].mac.queue packetPushed:vector(packetBytes) ETV
attr interpolationmode none
attr title "packet pushed, vector(packetBytes)"
vector 247 FanetSecureSybil.host[22].wlan[0].mac.queue queueLength:vector ETV
attr interpolationmode sample-hold
attr source "count(packetPushed) - count(packetPopped) - count(packetRemoved) - count(packetDropped)"
attr title "queue length, vector"
vector 248 FanetSecureSybil.host[22].wlan[0].mac.queue packetPopped:vector(packetBytes) ETV
attr interpolationmode none
attr title "packet popped, vector(packetBytes)"
vector 249 FanetSecureSybil.host[22].wlan[0].mac.queue queueingTime:vector ETV
attr interpolationmode none
attr source queueingTime(packetPopped)
attr title "queueing times, vector"
attr unit s
vector 250 FanetSecureSybil.host[22].wlan[0].mac sentDownPk:vector(packetBytes) ETV
attr interpolationmode none
attr source packetSentToLower
attr title "packets sent to lower layer, vector(packetBytes)"
vector 251 FanetSecureSybil.host[6].wlan[0].mac rcvdPkFromHl:vector(packetBytes) ETV
attr interpolationmode none
attr source packetReceivedFromUpper
attr title "packets received from higher layer, vector(packetBytes)"
vector 252 FanetSecureSybil.host[6].wlan[0].mac.queue packetPushed:vector(packetBytes) ETV
attr interpolationmode none
attr title "packet pushed, vector(packetBytes)"
vector 253 FanetSecureSybil.host[6].wlan[0].mac.queue queueLength:vector ETV
attr interpolationmode sample-hold
attr source "count(packetPushed) - count(packetPopped) - count(packetRemoved) - count(packetDropped)"
attr title "queue length, vector"
vector 254 FanetSecureSybil.host[6].wlan[0].mac.queue packetPopped:vector(packetBytes) ETV
attr interpolationmode none
attr title "packet popped, vector(packetBytes)"
vector 255 FanetSecureSybil.host[6].wlan[0].mac.queue queueingTime:vector ETV
attr interpolationmode none
attr source queueingTime(packetPopped)
attr title "queueing times, vector"
attr unit s
vector 256 FanetSecureSybil.host[6].wlan[0].mac sentDownPk:vector(packetBytes) ETV
attr interpolationmode none
attr source packetSentToLower
attr title "packets sent to lower layer, vector(packetBytes)"
vector 257 FanetSecureSybil.host[6].energyStorage residualEnergyCapacity:vector ETV
attr interpolationmode linear
attr source residualEnergyCapacityChanged
attr title "Residual energy capacity, vector"
vector 258 FanetSecureSybil.host[0].wlan[0].mac rcvdPkFromHl:vector(packetBytes) ETV
attr interpolationmode none
attr source packetReceivedFromUpper
attr title "packets received from higher layer, vector(packetBytes)"
vector 259 FanetSecureSybil.host[0].wlan[0].mac.queue packetPushed:vector(packetBytes) ETV
attr interpolationmode none
attr title "packet pushed, vector(packetBytes)"
vector 260 FanetSecureSybil.host[0].wlan[0].mac.queue queueLength:vector ETV
attr interpolationmode sample-hold
attr source "count(packetPushed) - count(packetPopped) - count(packetRemoved) - count(packetDropped)"
attr title "queue length, vector"
vector 261 FanetSecureSybil.host[0].wlan[0].mac.queue packetPopped:vector(packetBytes) ETV
attr interpolationmode none
attr title "packet popped, vector(packetBytes)"
vector 262 FanetSecureSybil.host[0].wlan[0].mac.queue queueingTime:vector ETV
attr interpolationmode none
attr source queueingTime(packetPopped)
attr title "queueing times, vector"
attr unit s
vector 263 FanetSecureSybil.host[0].wlan[0].mac sentDownPk:vector(packetBytes) ETV
attr interpolationmode none
attr source packetSentToLower
attr title "packets sent to lower layer, vector(packetBytes)"
vector 264 FanetSecureSybil.host[13].wlan[0].mac rcvdPkFromLl:vector(packetBytes) ETV
attr interpolationmode none
attr source packetReceivedFromLower
attr title "packets received from lower layer, vector(packetBytes)"
vector 265 FanetSecureSybil.host[13].wlan[0].mac passedUpPk:vector(packetBytes) ETV
attr interpolationmode none
attr source packetSentToUpper
attr title "packets passed to higher layer, vector(packetBytes)"
vector 266 FanetSecureSybil.host[24].wlan[0].mac rcvdPkFromHl:vector(packetBytes) ETV
attr interpolationmode none
attr source packetReceivedFromUpper
attr title "packets received from higher layer, vector(packetBytes)"
vector 267 FanetSecureSybil.host[24].wlan[0].mac.queue packetPushed:vector(packetBytes) ETV
attr interpolationmode none
attr title "packet pushed, vector(packetBytes)"
vector 268 FanetSecureSybil.host[24].wlan[0].mac.queue queueLength:vector ETV
attr interpolationmode sample-hold
attr source "count(packetPushed) - count(packetPopped) - count(packetRemoved) - count(packetDropped)"
attr title "queue length, vector"
vector 269 FanetSecureSybil.host[24].wlan[0].mac.queue packetPopped:vector(packetBytes) ETV
attr interpolationmode none
attr title "packet popped, vector(packetBytes)"
vector 270 FanetSecureSybil.host[24].wlan[0].mac.queue queueingTime:vector ETV
attr interpolationmode none
attr source queueingTime(packetPopped)
attr title "queueing times, vector"
attr unit s
vector 271 FanetSecureSybil.host[24].wlan[0].mac sentDownPk:vector(packetBytes) ETV
attr interpolationmode none
attr source packetSentToLower
attr title "packets sent to lower layer, vector(packetBytes)"
vector 272 FanetSecureSybil.host[1].wlan[0].mac rcvdPkFromHl:vector(packetBytes) ETV
attr interpolationmode none
attr source packetReceivedFromUpper
attr title "packets received from higher layer, vector(packetBytes)"
vector 273 FanetSecureSybil.host[1].wlan[0].mac.queue packetPushed:vector(packetBytes) ETV
attr interpolationmode none
attr title "packet pushed, vector(packetBytes)"
vector 274 FanetSecureSybil.host[1].wlan[0].mac.queue queueLength:vector ETV
attr interpolationmode sample-hold
attr source "count(packetPushed) - count(packetPopped) - count(packetRemoved) - count(packetDropped)"
attr title "queue length, vector"
vector 275 FanetSecureSybil.host[1].wlan[0].mac.queue packetPopped:vector(packetBytes) ETV
attr interpolationmode none
attr title "packet popped, vector(packetBytes)"
vector 276 FanetSecureSybil.host[1].wlan[0].mac.queue queueingTime:vector ETV
attr interpolationmode none
attr source queueingTime(packetPopped)
attr title "queueing times, vector"
attr unit s
vector 277 FanetSecureSybil.host[1].wlan[0].mac sentDownPk:vector(packetBytes) ETV
attr interpolationmode none
attr source packetSentToLower
attr title "packets sent to lower layer, vector(packetBytes)"
vector 278 FanetSecureSybil.host[15].wlan[0].mac rcvdPkFromLl:vector(packetBytes) ETV
attr interpolationmode none
attr source packetReceivedFromLower
attr title "packets received from lower layer, vector(packetBytes)"
vector 279 FanetSecureSybil.host[15].wlan[0].mac passedUpPk:vector(packetBytes) ETV
attr interpolationmode none
attr source packetSentToUpper
attr title "packets passed to higher layer, vector(packetBytes)"
vector 280 FanetSecureSybil.host[4].wlan[0].mac rcvdPkFromHl:vector(packetBytes) ETV
attr interpolationmode none
attr source packetReceivedFromUpper
attr title "packets received from higher layer, vector(packetBytes)"
vector 281 FanetSecureSybil.host[4].wlan[0].mac.queue packetPushed:vector(packetBytes) ETV
attr interpolationmode none
attr title "packet pushed, vector(packetBytes)"
vector 282 FanetSecureSybil.host[4].wlan[0].mac.queue queueLength:vector ETV
attr interpolationmode sample-hold
attr source "count(packetPushed) - count(packetPopped) - count(packetRemoved) - count(packetDropped)"
attr title "queue length, vector"
vector 283 FanetSecureSybil.host[4].wlan[0].mac.queue packetPopped:vector(packetBytes) ETV
attr interpolationmode none
attr title "packet popped, vector(packetBytes)"
vector 284 FanetSecureSybil.host[4].wlan[0].mac.queue queueingTime:vector ETV
attr interpolationmode none
attr source queueingTime(packetPopped)
attr title "queueing times, vector"
attr unit s
vector 285 FanetSecureSybil.host[4].wlan[0].mac sentDownPk:vector(packetBytes) ETV
attr interpolationmode none
attr source packetSentToLower
attr title "packets sent to lower layer, vector(packetBytes)"
vector 286 FanetSecureSybil.host[9].wlan[0].mac rcvdPkFromHl:vector(packetBytes) ETV
attr interpolationmode none
attr source packetReceivedFromUpper
attr title "packets received from higher layer, vector(packetBytes)"
vector 287 FanetSecureSybil.host[9].wlan[0].mac.queue packetPushed:vector(packetBytes) ETV
attr interpolationmode none
attr title "packet pushed, vector(packetBytes)"
vector 288 FanetSecureSybil.host[9].wlan[0].mac.queue queueLength:vector ETV
attr interpolationmode sample-hold
attr source "count(packetPushed) - count(packetPopped) - count(packetRemoved) - count(packetDropped)"
attr title "queue length, vector"
vector 289 FanetSecureSybil.host[9].wlan[0].mac.queue packetPopped:vector(packetBytes) ETV
attr interpolationmode none
attr title "packet popped, vector(packetBytes)"
vector 290 FanetSecureSybil.host[9].wlan[0].mac.queue queueingTime:vector ETV
attr interpolationmode none
attr source queueingTime(packetPopped)
attr title "queueing times, vector"
attr unit s
vector 291 FanetSecureSybil.host[9].wlan[0].mac sentDownPk:vector(packetBytes) ETV
attr interpolationmode none
attr source packetSentToLower
attr title "packets sent to lower layer, vector(packetBytes)"
vector 292 FanetSecureSybil.host[23].wlan[0].mac rcvdPkFromLl:vector(packetBytes) ETV
attr interpolationmode none
attr source packetReceivedFromLower
attr title "packets received from lower layer, vector(packetBytes)"
vector 293 FanetSecureSybil.host[23].wlan[0].mac passedUpPk:vector(packetBytes) ETV
attr interpolationmode none
attr source packetSentToUpper
attr title "packets passed to higher layer, vector(packetBytes)"
vector 294 FanetSecureSybil.host[10].wlan[0].mac rcvdPkFromHl:vector(packetBytes) ETV
attr interpolationmode none
attr source packetReceivedFromUpper
attr title "packets received from higher layer, vector(packetBytes)"
vector 295 FanetSecureSybil.host[10].wlan[0].mac.queue packetPushed:vector(packetBytes) ETV
attr interpolationmode none
attr title "packet pushed, vector(packetBytes)"
vector 296 FanetSecureSybil.host[10].wlan[0].mac.queue queueLength:vector ETV
attr interpolationmode sample-hold
attr source "count(packetPushed) - count(packetPopped) - count(packetRemoved) - count(packetDropped)"
attr title "queue length, vector"
vector 297 FanetSecureSybil.host[10].wlan[0].mac.queue packetPopped:vector(packetBytes) ETV
attr interpolationmode none
attr title "packet popped, vector(packetBytes)"
vector 298 FanetSecureSybil.host[10].wlan[0].mac.queue queueingTime:vector ETV
attr interpolationmode none
attr source queueingTime(packetPopped)
attr title "queueing times, vector"
attr unit s
vector 299 FanetSecureSybil.host[10].wlan[0].mac sentDownPk:vector(packetBytes) ETV
attr interpolationmode none
attr source packetSentToLower
attr title "packets sent to lower layer, vector(packetBytes)"
vector 300 FanetSecureSybil.host[2].wlan[0].mac rcvdPkFromHl:vector(packetBytes) ETV
attr interpolationmode none
attr source packetReceivedFromUpper
attr title "packets received from higher layer, vector(packetBytes)"
vector 301 FanetSecureSybil.host[2].wlan[0].mac.queue packetPushed:vector(packetBytes) ETV
attr interpolationmode none
attr title "packet pushed, vector(packetBytes)"
vector 302 FanetSecureSybil.host[2].wlan[0].mac.queue queueLength:vector ETV
attr interpolationmode sample-hold
attr source "count(packetPushed) - count(packetPopped) - count(packetRemoved) - count(packetDropped)"
attr title "queue length, vector"
vector 303 FanetSecureSybil.host[2].wlan[0].mac.queue packetPopped:vector(packetBytes) ETV
attr interpolationmode none
attr title "packet popped, vector(packetBytes)"
vector 304 FanetSecureSybil.host[2].wlan[0].mac.queue queueingTime:vector ETV
attr interpolationmode none
attr source queueingTime(packetPopped)
attr title "queueing times, vector"
attr unit s
vector 305 FanetSecureSybil.host[2].wlan[0].mac sentDownPk:vector(packetBytes) ETV
attr interpolationmode none
attr source packetSentToLower
attr title "packets sent to lower layer, vector(packetBytes)"
vector 306 FanetSecureSybil.host[20].wlan[0].mac rcvdPkFromHl:vector(packetBytes) ETV
attr interpolationmode none
attr source packetReceivedFromUpper
attr title "packets received from higher layer, vector(packetBytes)"
vector 307 FanetSecureSybil.host[20].wlan[0].mac.queue packetPushed:vector(packetBytes) ETV
attr interpolationmode none
attr title "packet pushed, vector(packetBytes)"
vector 308 FanetSecureSybil.host[20].wlan[0].mac.queue queueLength:vector ETV
attr interpolationmode sample-hold
attr source "count(packetPushed) - count(packetPopped) - count(packetRemoved) - count(packetDropped)"
attr title "queue length, vector"
vector 309 FanetSecureSybil.host[20].wlan[0].mac.queue packetPopped:vector(packetBytes) ETV
attr interpolationmode none
attr title "packet popped, vector(packetBytes)"
vector 310 FanetSecureSybil.host[20].wlan[0].mac.queue queueingTime:vector ETV
attr interpolationmode none
attr source queueingTime(packetPopped)
attr title "queueing times, vector"
attr unit s
vector 311 FanetSecureSybil.host[20].wlan[0].mac sentDownPk:vector(packetBytes) ETV
attr interpolationmode none
attr source packetSentToLower
attr title "packets sent to lower layer, vector(packetBytes)"
vector 312 FanetSecureSybil.host[6].wlan[0].mac rcvdPkFromLl:vector(packetBytes) ETV
attr interpolationmode none
attr source packetReceivedFromLower
attr title "packets received from lower layer, vector(packetBytes)"
vector 313 FanetSecureSybil.host[6].wlan[0].mac passedUpPk:vector(packetBytes) ETV
attr interpolationmode none
attr source packetSentToUpper
attr title "packets passed to higher layer, vector(packetBytes)"
vector 314 FanetSecureSybil.host[21].wlan[0].mac rcvdPkFromHl:vector(packetBytes) ETV
attr interpolationmode none
attr source packetReceivedFromUpper
attr title "packets received from higher layer, vector(packetBytes)"
vector 315 FanetSecureSybil.host[21].wlan[0].mac.queue packetPushed:vector(packetBytes) ETV
attr interpolationmode none
attr title "packet pushed, vector(packetBytes)"
vector 316 FanetSecureSybil.host[21].wlan[0].mac.queue queueLength:vector ETV
attr interpolationmode sample-hold
attr source "count(packetPushed) - count(packetPopped) - count(packetRemoved) - count(packetDropped)"
attr title "queue length, vector"
vector 317 FanetSecureSybil.host[21].wlan[0].mac.queue packetPopped:vector(packetBytes) ETV
attr interpolationmode none
attr title "packet popped, vector(packetBytes)"
vector 318 FanetSecureSybil.host[21].wlan[0].mac.queue queueingTime:vector ETV
attr interpolationmode none
attr source queueingTime(packetPopped)
attr title "queueing times, vector"
attr unit s
vector 319 FanetSecureSybil.host[21].wlan[0].mac sentDownPk:vector(packetBytes) ETV
attr interpolationmode none
attr source packetSentToLower
attr title "packets sent to lower layer, vector(packetBytes)"
vector 320 FanetSecureSybil.host[3].wlan[0].mac rcvdPkFromHl:vector(packetBytes) ETV
attr interpolationmode none
attr source packetReceivedFromUpper
attr title "packets received from higher layer, vector(packetBytes)"
vector 321 FanetSecureSybil.host[3].wlan[0].mac.queue packetPushed:vector(packetBytes) ETV
attr interpolationmode none
attr title "packet pushed, vector(packetBytes)"
vector 322 FanetSecureSybil.host[3].wlan[0].mac.queue queueLength:vector ETV
attr interpolationmode sample-hold
attr source "count(packetPushed) - count(packetPopped) - count(packetRemoved) - count(packetDropped)"
attr title "queue length, vector"
vector 323 FanetSecureSybil.host[3].wlan[0].mac.queue packetPopped:vector(packetBytes) ETV
attr interpolationmode none
attr title "packet popped, vector(packetBytes)"
vector 324 FanetSecureSybil.host[3].wlan[0].mac.queue queueingTime:vector ETV
attr interpolationmode none
attr source queueingTime(packetPopped)
attr title "queueing times, vector"
attr unit s
vector 325 FanetSecureSybil.host[3].wlan[0].mac sentDownPk:vector(packetBytes) ETV
attr interpolationmode none
attr source packetSentToLower
attr title "packets sent to lower layer, vector(packetBytes)"
vector 326 FanetSecureSybil.host[7].wlan[0].mac rcvdPkFromHl:vector(packetBytes) ETV
attr interpolationmode none
attr source packetReceivedFromUpper
attr title "packets received from higher layer, vector(packetBytes)"
vector 327 FanetSecureSybil.host[7].wlan[0].mac.queue packetPushed:vector(packetBytes) ETV
attr interpolationmode none
attr title "packet pushed, vector(packetBytes)"
vector 328 FanetSecureSybil.host[7].wlan[0].mac.queue queueLength:vector ETV
attr interpolationmode sample-hold
attr source "count(packetPushed) - count(packetPopped) - count(packetRemoved) - count(packetDropped)"
attr title "queue length, vector"
vector 329 FanetSecureSybil.host[7].wlan[0].mac.queue packetPopped:vector(packetBytes) ETV
attr interpolationmode none
attr title "packet popped, vector(packetBytes)"
vector 330 FanetSecureSybil.host[7].wlan[0].mac.queue queueingTime:vector ETV
attr interpolationmode none
attr source queueingTime(packetPopped)
attr title "queueing times, vector"
attr unit s
vector 331 FanetSecureSybil.host[7].wlan[0].mac sentDownPk:vector(packetBytes) ETV
attr interpolationmode none
attr source packetSentToLower
attr title "packets sent to lower layer, vector(packetBytes)"
vector 332 FanetSecureSybil.host[5].wlan[0].mac rcvdPkFromHl:vector(packetBytes) ETV
attr interpolationmode none
attr source packetReceivedFromUpper
attr title "packets received from higher layer, vector(packetBytes)"
vector 333 FanetSecureSybil.host[5].wlan[0].mac.queue packetPushed:vector(packetBytes) ETV
attr interpolationmode none
attr title "packet pushed, vector(packetBytes)"
vector 334 FanetSecureSybil.host[5].wlan[0].mac.queue queueLength:vector ETV
attr interpolationmode sample-hold
attr source "count(packetPushed) - count(packetPopped) - count(packetRemoved) - count(packetDropped)"
attr title "queue length, vector"
vector 335 FanetSecureSybil.host[5].wlan[0].mac.queue packetPopped:vector(packetBytes) ETV
attr interpolationmode none
attr title "packet popped, vector(packetBytes)"
vector 336 FanetSecureSybil.host[5].wlan[0].mac.queue queueingTime:vector ETV
attr interpolationmode none
attr source queueingTime(packetPopped)
attr title "queueing times, vector"
attr unit s
vector 337 FanetSecureSybil.host[5].wlan[0].mac sentDownPk:vector(packetBytes) ETV
attr interpolationmode none
attr source packetSentToLower
attr title "packets sent to lower layer, vector(packetBytes)"
vector 338 FanetSecureSybil.host[14].wlan[0].mac rcvdPkFromHl:vector(packetBytes) ETV
attr interpolationmode none
attr source packetReceivedFromUpper
attr title "packets received from higher layer, vector(packetBytes)"
vector 339 FanetSecureSybil.host[14].wlan[0].mac.queue packetPushed:vector(packetBytes) ETV
attr interpolationmode none
attr title "packet pushed, vector(packetBytes)"
vector 340 FanetSecureSybil.host[14].wlan[0].mac.queue queueLength:vector ETV
attr interpolationmode sample-hold
attr source "count(packetPushed) - count(packetPopped) - count(packetRemoved) - count(packetDropped)"
attr title "queue length, vector"
vector 341 FanetSecureSybil.host[14].wlan[0].mac.queue packetPopped:vector(packetBytes) ETV
attr interpolationmode none
attr title "packet popped, vector(packetBytes)"
vector 342 FanetSecureSybil.host[14].wlan[0].mac.queue queueingTime:vector ETV
attr interpolationmode none
attr source queueingTime(packetPopped)
attr title "queueing times, vector"
attr unit s
vector 343 FanetSecureSybil.host[14].wlan[0].mac sentDownPk:vector(packetBytes) ETV
attr interpolationmode none
attr source packetSentToLower
attr title "packets sent to lower layer, vector(packetBytes)"
vector 344 FanetSecureSybil.host[16].wlan[0].mac rcvdPkFromHl:vector(packetBytes) ETV
attr interpolationmode none
attr source packetReceivedFromUpper
attr title "packets received from higher layer, vector(packetBytes)"
vector 345 FanetSecureSybil.host[16].wlan[0].mac.queue packetPushed:vector(packetBytes) ETV
attr interpolationmode none
attr title "packet pushed, vector(packetBytes)"
vector 346 FanetSecureSybil.host[16].wlan[0].mac.queue queueLength:vector ETV
attr interpolationmode sample-hold
attr source "count(packetPushed) - count(packetPopped) - count(packetRemoved) - count(packetDropped)"
attr title "queue length, vector"
vector 347 FanetSecureSybil.host[16].wlan[0].mac.queue packetPopped:vector(packetBytes) ETV
attr interpolationmode none
attr title "packet popped, vector(packetBytes)"
vector 348 FanetSecureSybil.host[16].wlan[0].mac.queue queueingTime:vector ETV
attr interpolationmode none
attr source queueingTime(packetPopped)
attr title "queueing times, vector"
attr unit s
vector 349 FanetSecureSybil.host[16].wlan[0].mac sentDownPk:vector(packetBytes) ETV
attr interpolationmode none
attr source packetSentToLower
attr title "packets sent to lower layer, vector(packetBytes)"
vector 350 FanetSecureSybil.host[0].app[0] packetSent:vector(packetBytes) ETV
attr interpolationmode none
attr source packetSent
attr title "packets sent, vector(packetBytes)"
vector 351 FanetSecureSybil.host[0].udp packetSent:vector(packetBytes) ETV
attr interpolationmode none
attr source packetSent
attr title "packets sent, vector(packetBytes)"
vector 352 FanetSecureSybil.host[13].wlan[0].mac packetDropNotAddressedToUs:vector(packetBytes) ETV
attr interpolationmode none
attr source packetDropReasonIsNotAddressedToUs(packetDropped)
attr title "packet drop: not addressed to us, vector(packetBytes)"
vector 353 FanetSecureSybil.host[2].wlan[0].mac packetDropNotAddressedToUs:vector(packetBytes) ETV
attr interpolationmode none
attr source packetDropReasonIsNotAddressedToUs(packetDropped)
attr title "packet drop: not addressed to us, vector(packetBytes)"
vector 354 FanetSecureSybil.host[3].wlan[0].mac packetDropNotAddressedToUs:vector(packetBytes) ETV
attr interpolationmode none
attr source packetDropReasonIsNotAddressedToUs(packetDropped)
attr title "packet drop: not addressed to us, vector(packetBytes)"
vector 355 FanetSecureSybil.host[7].wlan[0].mac packetDropNotAddressedToUs:vector(packetBytes) ETV
attr interpolationmode none
attr source packetDropReasonIsNotAddressedToUs(packetDropped)
attr title "packet drop: not addressed to us, vector(packetBytes)"
vector 356 FanetSecureSybil.host[0].wlan[0].mac packetDropNotAddressedToUs:vector(packetBytes) ETV
attr interpolationmode none
attr source packetDropReasonIsNotAddressedToUs(packetDropped)
attr title "packet drop: not addressed to us, vector(packetBytes)"
vector 357 FanetSecureSybil.host[16].wlan[0].mac packetDropNotAddressedToUs:vector(packetBytes) ETV
attr interpolationmode none
attr source packetDropReasonIsNotAddressedToUs(packetDropped)
attr title "packet drop: not addressed to us, vector(packetBytes)"
vector 358 FanetSecureSybil.host[9].wlan[0].mac packetDropNotAddressedToUs:vector(packetBytes) ETV
attr interpolationmode none
attr source packetDropReasonIsNotAddressedToUs(packetDropped)
attr title "packet drop: not addressed to us, vector(packetBytes)"
vector 359 FanetSecureSybil.host[6].wlan[0].mac packetDropNotAddressedToUs:vector(packetBytes) ETV
attr interpolationmode none
attr source packetDropReasonIsNotAddressedToUs(packetDropped)
attr title "packet drop: not addressed to us, vector(packetBytes)"
vector 360 FanetSecureSybil.host[23].wlan[0].mac packetDropNotAddressedToUs:vector(packetBytes) ETV
attr interpolationmode none
attr source packetDropReasonIsNotAddressedToUs(packetDropped)
attr title "packet drop: not addressed to us, vector(packetBytes)"
vector 361 FanetSecureSybil.host[1].udp packetReceived:vector(packetBytes) ETV
attr interpolationmode none
attr source packetReceived
attr title "packets received, vector(packetBytes)"
vector 362 FanetSecureSybil.host[1].udp passedUpPk:vector(count) ETV
attr interpolationmode none
attr source packetSentToUpper
attr title "packets passed up, vector(count)"
vector 363 FanetSecureSybil.host[1].app[0] packetReceived:vector(packetBytes) ETV
attr interpolationmode none
attr source packetReceived
attr title "packets received, vector(packetBytes)"
vector 364 FanetSecureSybil.host[1].app[0] throughput:vector ETV
attr source throughput(packetReceived)
attr title "throughput, vector"
attr unit bps
vector 365 FanetSecureSybil.host[1].app[0] endToEndDelay:vector ETV
attr interpolationmode none
attr source dataAge(packetReceived)
attr title "end-to-end delay, vector"
attr unit s
vector 366 FanetSecureSybil.host[1].app[0] rcvdPkSeqNo:vector ETV
attr interpolationmode none
attr source appPkSeqNo(packetReceived)
attr title "received packet sequence number, vector"
vector 367 FanetSecureSybil.host[20].wlan[0].mac packetDropNotAddressedToUs:vector(packetBytes) ETV
attr interpolationmode none
attr source packetDropReasonIsNotAddressedToUs(packetDropped)
attr title "packet drop: not addressed to us, vector(packetBytes)"
vector 368 FanetSecureSybil.host[20].udp packetReceived:vector(packetBytes) ETV
attr interpolationmode none
attr source packetReceived
attr title "packets received, vector(packetBytes)"
vector 369 FanetSecureSybil.host[20].udp passedUpPk:vector(count) ETV
attr interpolationmode none
attr source packetSentToUpper
attr title "packets passed up, vector(count)"
vector 370 FanetSecureSybil.host[20].app[0] packetReceived:vector(packetBytes) ETV
attr interpolationmode none
attr source packetReceived
attr title "packets received, vector(packetBytes)"
vector 371 FanetSecureSybil.host[20].app[0] throughput:vector ETV
attr source throughput(packetReceived)
attr title "throughput, vector"
attr unit bps
vector 372 FanetSecureSybil.host[20].app[0] endToEndDelay:vector ETV
attr interpolationmode none
attr source dataAge(packetReceived)
attr title "end-to-end delay, vector"
attr unit s
vector 373 FanetSecureSybil.host[20].app[0] rcvdPkSeqNo:vector ETV
attr interpolationmode none
attr source appPkSeqNo(packetReceived)
attr title "received packet sequence number, vector"
0	79304 3478 0 9885 0 22.117873121258 92 0 0.69176469570934 44.581764050268 24.245385792091
1	82782 874 0 9304 0 21.195023789955 26 0 0.69176469570934 10.919999839412 5.8062455039686
2	83656 3572 0 9890 0 22.11787349267 94 0 0.69176469570934 46.150587556609 24.856834563034
3	87228 3731 0 9893 0 22.117873577013 98 0 0.69176469570934 48.139411056773 25.906231417983
4	90959 1826 0 9721 0 21.982530598329 50 0 0.69176469570934 23.137058483279 12.344795138648
5	92785 1827 0 9852 0 22.117500187431 50 0 0.69176469570934 23.137058483279 12.344795138648
[...]
141	631221 60 17536 20970 36.420010030269 42.801839525345 2 389 389 778 302642
142	631281 56 17536 20970 36.420010030269 42.801839525345 2 0 0 0 0
143	631337 60 17536 20970 36.420010030269 42.801839525345 2 405 405 810 328050
144	631397 2394 10170 24862 22.736481811901 48.786443144309 56 -27.722247143733 -12.919705580767 -1170.3979223379 25552.967107035
145	633791 2396 10166 24861 22.736481633011 48.786443137792 56 -27.722264310618 -12.919705479115 -1174.4250102011 25704.837916827
146	636187 1674 11945 24689 25.368252439711 48.446363273075 39 -27.529018931509 -14.415170515519 -820.55910955449 17930.416310063
147	637861 2266 10164 24860 22.736481588432 48.786443005813 53 -27.722264235623 -12.919688283196 -1109.2614119756 24229.064696446
148	640127 4656 10160 25655 22.736481311489 50.169943427518 109 -28.508417993101 -12.919705296415 -2259.4116584822 49167.683499038
149	644783 4274 10161 25647 22.736481339436 50.169943374918 100 -28.508400792624 -12.919705312296 -2065.7233000243 44877.887679073
150	649057 4325 10159 25818 22.736480892636 50.609137593298 101 -28.757983615398 -12.91968788782 -2097.3225231515 45627.031759164
151	653382 536 10210 24734 22.736620633011 48.446501877028 18 405 405 7290 2952450
152	653918 536 10210 24734 22.736620633011 48.446501877028 18 389 389 7002 2723778
153	654454 359 11983 24588 25.368391439711 48.207744304221 12 405 405 4860 1968300
154	654813 359 11983 24588 25.368391439711 48.207744304221 12 389 389 4668 1815852
155	655172 508 10202 24726 22.736620588432 48.446501737297 17 405 405 6885 2788425
156	655680 508 10202 24726 22.736620588432 48.446501737297 17 389 389 6613 2572457
157	656188 1224 10186 25656 22.736620311489 50.169943427518 41 405 405 16605 6725025
158	657412 1224 10186 25656 22.736620311489 50.169943427518 41 389 389 15949 6204161
159	658636 1165 10190 25648 22.736620339436 50.169943374918 39 405 405 15795 6396975
160	659801 1165 10190 25648 22.736620339436 50.169943374918 39 389 389 15171 5901519
161	660966 1104 10826 25644 23.615287155886 50.169943323432 37 405 405 14985 6068925
162	662070 1104 10826 25644 23.615287155886 50.169943323432 37 389 389 14393 5598877
163	663174 60 15763 20277 32.505473727361 41.649159607478 2 389 389 778 302642
164	663234 60 15763 20277 32.505473727361 41.649159607478 2 389 389 778 302642
165	663294 112 15763 20277 32.505473727361 41.649159607478 4 0 1 2 2
166	663406 60 15763 20277 32.505473727361 41.649159607478 2 389 389 778 302642
167	663466 56 15763 20277 32.505473727361 41.649159607478 2 0 0 0 0
168	663522 60 15763 20277 32.505473727361 41.649159607478 2 405 405 810 328050
169	663582 4832 9917 25663 22.11824626228 50.169943453836 113 -28.508400837468 -12.56840232656 -2328.2962481283 50776.833632347
170	668414 4406 9924 25671 22.118246454591 50.169943564903 103 -28.509323253507 -12.568754206421 -2143.0649879238 47188.422124196
171	672820 5097 9914 25499 22.118245532677 49.948671056166 119 -28.383588406274 -12.568753682557 -2465.5302454664 54000.83626616
172	677917 5302 10165 25819 22.736481626165 50.609137650385 124 -28.757983647837 -12.919688304637 -2572.2929433154 56169.578421449
173	683219 5484 10167 25821 22.736481662629 50.609137724686 128 -28.757983690057 -12.919688325357 -2646.8110305358 57653.583728448
174	688703 5609 9926 25651 22.118246487719 50.169943412595 131 -28.508400814033 -12.568385284075 -2679.2471404785 58111.838912839
175	694312 791 9925 25672 22.118246454591 50.169943564903 26 405 1108 19669 18091957
176	695103 389 10931 25672 23.64757214001 50.169943564903 13 389 389 5057 1967173
177	695492 1220 9980 25364 22.118620588224 49.510356807031 40 405 1108 33775 33151975
178	696712 819 10408 25364 23.263011160292 49.510356807031 27 389 1092 18939 16579383
179	697531 1358 10206 24872 22.736620626165 48.786815022524 45 405 1108 26661 20144793
180	698889 986 10206 24718 22.736620626165 48.446501665474 33 389 389 12837 4993593
181	699875 1449 10214 25632 22.736620662629 50.169942751646 48 405 1108 27876 20636868
182	701324 1077 10214 25632 22.736620662629 50.169942751646 36 389 389 14004 5447556
183	702401 1458 9927 25652 22.118246487719 50.169943412595 48 405 1108 35609 32336897
184	703859 749 10218 25652 22.736620743713 50.169943412595 25 389 389 9725 3783025
185	704608 120 12302 25816 25.943985970225 50.609137213323 4 389 389 1556 605284
186	704728 120 12302 25816 25.943985970225 50.609137213323 4 389 389 1556 605284
187	704848 224 12302 25816 25.943985970225 50.609137213323 8 0 1 4 4
188	705072 120 12302 25816 25.943985970225 50.609137213323 4 389 389 1556 605284
189	705192 112 12302 25816 25.943985970225 50.609137213323 4 0 0 0 0
190	705304 120 12302 25816 25.943985970225 50.609137213323 4 405 405 1620 656100
191	705424 3510 10162 25817 22.736481346557 50.609137213323 82 -28.757983399483 -12.919705316342 -1677.5551876406 36116.239454446
192	708934 3600 10163 25820 22.736481406625 50.609137672084 84 -28.757966489579 -12.919688179887 -1717.6094124977 36973.344690804
193	712534 3803 10171 25659 22.7364818196 50.169943431612 89 -28.508417995428 -12.919705585142 -1818.199428854 39196.484726722
194	716337 3811 10169 25667 22.736481783548 50.169943470246 89 -28.508435187969 -12.919722735244 -1818.7850483809 39224.971726182
195	720148 869 10198 25636 22.736620406625 50.169942974147 29 405 405 11745 4756725
196	721017 869 10198 25636 22.736620406625 50.169942974147 29 389 389 11281 4388309
197	721886 953 10230 25660 22.7366208196 50.169943431612 32 405 405 12960 5248800
198	722839 953 10230 25660 22.7366208196 50.169943431612 32 389 389 12448 4842272
199	723792 958 10222 25668 22.736620783548 50.169943470246 32 405 405 12960 5248800
200	724750 958 10222 25668 22.736620783548 50.169943470246 32 389 389 12448 4842272
201	725708 90 10615 23090 23.276854762807 45.987592202146 3 389 389 1167 453963
202	725798 90 10615 23090 23.276854762807 45.987592202146 3 389 389 1167 453963
203	725888 168 10615 23090 23.276854762807 45.987592202146 6 0 1 3 3
204	726056 90 10615 23090 23.276854762807 45.987592202146 3 389 389 1167 453963
205	726146 84 10615 23090 23.276854762807 45.987592202146 3 0 0 0 0
206	726230 90 10615 23090 23.276854762807 45.987592202146 3 405 405 1215 492075
207	726320 1754 10616 24223 23.276854762807 48.075194164198 41 -27.31810754686 -13.226764558943 -838.64828377158 18109.247122026
208	728074 2006 10617 24120 23.276855340459 47.823341456348 47 -27.174978780857 -13.226747716597 -985.22814867515 21552.614752988
209	730080 417 10643 23827 23.276994340459 47.36244728398 14 405 405 5670 2296350
210	730497 417 10643 23827 23.276994340459 47.36244728398 14 389 389 5446 2118494
211	730914 90 13246 21801 27.693997141906 44.045835842845 3 389 389 1167 453963
212	731004 90 13246 21801 27.693997141906 44.045835842845 3 389 389 1167 453963
213	731094 168 13246 21801 27.693997141906 44.045835842845 6 0 1 3 3
214	731262 90 13246 21801 27.693997141906 44.045835842845 3 389 389 1167 453963
215	731352 84 13246 21801 27.693997141906 44.045835842845 3 0 0 0 0
216	731436 90 13246 21801 27.693997141906 44.045835842845 3 405 405 1215 492075
217	731526 568 10226 24746 22.736620811901 48.446501956813 19 405 405 7695 3116475
218	732094 568 10226 24746 22.736620811901 48.446501956813 19 389 389 7391 2875099
219	732662 60 15034 21473 32.033945873846 43.384534644429 2 389 389 778 302642
220	732722 60 15034 21473 32.033945873846 43.384534644429 2 389 389 778 302642
221	732782 112 15034 21473 32.033945873846 43.384534644429 4 0 1 2 2
222	732894 60 15034 21473 32.033945873846 43.384534644429 2 389 389 778 302642
223	732954 56 15034 21473 32.033945873846 43.384534644429 2 0 0 0 0
224	733010 60 15034 21473 32.033945873846 43.384534644429 2 405 405 810 328050
225	733070 868 10194 25640 22.736620346557 50.169943104875 29 405 405 11745 4756725
226	733938 868 10194 25640 22.736620346557 50.169943104875 29 389 389 11281 4388309
227	734806 90 14413 23795 30.277257743292 47.362307861913 3 389 389 1167 453963
228	734896 90 14413 23795 30.277257743292 47.362307861913 3 389 389 1167 453963
229	734986 168 14413 23795 30.277257743292 47.362307861913 6 0 1 3 3
230	735154 90 14413 23795 30.277257743292 47.362307861913 3 389 389 1167 453963
231	735244 84 14413 23795 30.277257743292 47.362307861913 3 0 0 0 0
232	735328 90 14413 23795 30.277257743292 47.362307861913 3 405 405 1215 492075
233	735418 388 10935 24130 23.647572207038 47.823342046843 13 405 405 5265 2132325
234	735806 388 10935 24130 23.647572207038 47.823342046843 13 389 389 5057 1967173
235	736194 368 9922 24930 22.118246393784 48.787189271121 12 389 1092 11698 12227282
236	736562 368 9922 24930 22.118246393784 48.787189271121 12 389 1092 11698 12227282
237	736930 668 9922 24930 22.118246393784 48.787189271121 24 0 1 12 12
238	737598 368 9922 24930 22.118246393784 48.787189271121 12 389 1092 11698 12227282
239	737966 334 9922 24930 22.118246393784 48.787189271121 12 0 0 0 0
240	738300 368 9922 24930 22.118246393784 48.787189271121 12 405 1108 11890 12604690
241	738668 4282 9919 25619 22.118246393784 50.169804867641 100 -28.50910608789 -12.56872522481 -2099.5626586706 46625.122381469
242	742950 3837 9915 25496 22.118246171968 49.948670743259 90 -28.382665875542 -12.568385104654 -1871.3076712545 41315.502386135
243	746787 1043 9916 25356 22.118246171968 49.510356315343 34 405 1108 32048 33231464
244	747830 240 11745 25356 25.020522837539 49.510356315343 8 389 389 3112 1210568
245	748070 90 10782 20346 23.615147643723 41.695210989565 3 389 389 1167 453963
246	748160 90 10782 20346 23.615147643723 41.695210989565 3 389 389 1167 453963
247	748250 168 10782 20346 23.615147643723 41.695210989565 6 0 1 3 3
248	748418 90 10782 20346 23.615147643723 41.695210989565 3 389 389 1167 453963
249	748508 84 10782 20346 23.615147643723 41.695210989565 3 0 0 0 0
250	748592 90 10782 20346 23.615147643723 41.695210989565 3 405 405 1215 492075
251	748682 183 11717 25328 25.020383317024 49.510216871277 6 389 1092 4443 4031355
252	748865 183 11717 25328 25.020383317024 49.510216871277 6 389 1092 4443 4031355
253	749048 336 11717 25328 25.020383317024 49.510216871277 12 0 1 6 6
254	749384 183 11717 25328 25.020383317024 49.510216871277 6 389 1092 4443 4031355
255	749567 168 11717 25328 25.020383317024 49.510216871277 6 0 0 0 0
256	749735 183 11717 25328 25.020383317024 49.510216871277 6 405 1108 4539 4175067
257	749918 3806 11269 25627 24.213254906021 50.169805741384 89 -28.508460937332 -13.758842991321 -1947.9895069641 44680.663444565
258	753724 462 10374 24840 23.262636898797 48.786440791871 15 389 1092 14271 14763531
259	754186 462 10374 24840 23.262636898797 48.786440791871 15 389 1092 14271 14763531
260	754648 840 10374 24840 23.262636898797 48.786440791871 30 0 1 15 15
261	755488 462 10374 24840 23.262636898797 48.786440791871 15 389 1092 14271 14763531
262	755950 420 10374 24840 23.262636898797 48.786440791871 15 0 0 0 0
263	756370 462 10374 24840 23.262636898797 48.786440791871 15 405 1108 14511 15224043
264	756832 1279 9918 25664 22.11824626228 50.169943453836 42 405 1108 34585 33480025
265	758111 510 10575 25664 23.269842025973 50.169943453836 17 389 389 6613 2572457
266	758621 90 13078 20777 27.302436693571 42.433666000142 3 389 389 1167 453963
267	758711 90 13078 20777 27.302436693571 42.433666000142 3 389 389 1167 453963
268	758801 168 13078 20777 27.302436693571 42.433666000142 6 0 1 3 3
269	758969 90 13078 20777 27.302436693571 42.433666000142 3 389 389 1167 453963
270	759059 84 13078 20777 27.302436693571 42.433666000142 3 0 0 0 0
271	759143 90 13078 20777 27.302436693571 42.433666000142 3 405 405 1215 492075
272	759233 90 11491 22337 24.628567616455 44.468252176884 3 389 389 1167 453963
273	759323 90 11491 22337 24.628567616455 44.468252176884 3 389 389 1167 453963
274	759413 168 11491 22337 24.628567616455 44.468252176884 6 0 1 3 3
275	759581 90 11491 22337 24.628567616455 44.468252176884 3 389 389 1167 453963
276	759671 84 11491 22337 24.628567616455 44.468252176884 3 0 0 0 0
277	759755 90 11491 22337 24.628567616455 44.468252176884 3 405 405 1215 492075
278	759845 455 11301 25519 24.213628209138 49.94880945558 15 405 1108 11699 10969487
279	760300 455 11301 25519 24.213628209138 49.94880945558 15 389 1092 11459 10598959
280	760755 90 11573 24094 24.728506214451 47.823202456348 3 389 389 1167 453963
281	760845 90 11573 24094 24.728506214451 47.823202456348 3 389 389 1167 453963
282	760935 168 11573 24094 24.728506214451 47.823202456348 6 0 1 3 3
283	761103 90 11573 24094 24.728506214451 47.823202456348 3 389 389 1167 453963
284	761193 84 11573 24094 24.728506214451 47.823202456348 3 0 0 0 0
285	761277 90 11573 24094 24.728506214451 47.823202456348 3 405 405 1215 492075
286	761367 461 10410 24876 23.263011160292 48.786815108462 15 389 1092 14271 14763531
287	761828 461 10410 24876 23.263011160292 48.786815108462 15 389 1092 14271 14763531
288	762289 838 10410 24876 23.263011160292 48.786815108462 30 0 1 15 15
289	763127 461 10410 24876 23.263011160292 48.786815108462 15 389 1092 14271 14763531
290	763588 419 10410 24876 23.263011160292 48.786815108462 15 0 0 0 0
291	764007 461 10410 24876 23.263011160292 48.786815108462 15 405 1108 14511 15224043
292	764468 1038 9920 25527 22.118246393784 49.948809546362 34 405 1108 28533 27913269
293	765506 698 9920 25527 22.118246393784 49.948809546362 23 389 1092 15977 13891813
294	766204 90 13801 24552 28.418235406279 48.207604822236 3 389 389 1167 453963
295	766294 90 13801 24552 28.418235406279 48.207604822236 3 389 389 1167 453963
296	766384 168 13801 24552 28.418235406279 48.207604822236 6 0 1 3 3
297	766552 90 13801 24552 28.418235406279 48.207604822236 3 389 389 1167 453963
298	766642 84 13801 24552 28.418235406279 48.207604822236 3 0 0 0 0
299	766726 90 13801 24552 28.418235406279 48.207604822236 3 405 405 1215 492075
300	766816 119 11802 25604 25.14347928809 50.169803667813 4 389 389 1556 605284
301	766935 119 11802 25604 25.14347928809 50.169803667813 4 389 389 1556 605284
302	767054 222 11802 25604 25.14347928809 50.169803667813 8 0 1 4 4
303	767276 119 11802 25604 25.14347928809 50.169803667813 4 389 389 1556 605284
304	767395 111 11802 25604 25.14347928809 50.169803667813 4 0 0 0 0
305	767506 119 11802 25604 25.14347928809 50.169803667813 4 405 405 1620 656100
306	767625 366 11249 25491 24.213254135243 49.948669709265 12 389 1092 10292 10144996
307	767991 366 11249 25491 24.213254135243 49.948669709265 12 389 1092 10292 10144996
308	768357 668 11249 25491 24.213254135243 49.948669709265 24 0 1 12 12
309	769025 366 11249 25491 24.213254135243 49.948669709265 12 389 1092 10292 10144996
310	769391 334 11249 25491 24.213254135243 49.948669709265 12 0 0 0 0
311	769725 366 11249 25491 24.213254135243 49.948669709265 12 405 1108 10484 10477412
312	770091 856 11306 25523 24.213628239354 49.948809536181 28 405 1108 23994 23738202
313	770947 392 12271 25523 25.926497644711 49.948809536181 13 389 1092 7166 5090602
314	771339 120 10158 24674 22.736480892636 48.446361999959 4 389 389 1556 605284
315	771459 120 10158 24674 22.736480892636 48.446361999959 4 389 389 1556 605284
316	771579 224 10158 24674 22.736480892636 48.446361999959 8 0 1 4 4
317	771803 120 10158 24674 22.736480892636 48.446361999959 4 389 389 1556 605284
318	771923 112 10158 24674 22.736480892636 48.446361999959 4 0 0 0 0
319	772035 120 10158 24674 22.736480892636 48.446361999959 4 405 405 1620 656100
320	772155 119 10863 23904 23.64743224578 47.408207051922 4 389 389 1556 605284
321	772274 119 10863 23904 23.64743224578 47.408207051922 4 389 389 1556 605284
322	772393 222 10863 23904 23.64743224578 47.408207051922 8 0 1 4 4
323	772615 119 10863 23904 23.64743224578 47.408207051922 4 389 389 1556 605284
324	772734 111 10863 23904 23.64743224578 47.408207051922 4 0 0 0 0
325	772845 119 10863 23904 23.64743224578 47.408207051922 4 405 405 1620 656100
326	772964 88 12596 20189 26.277809129097 41.504612728023 3 389 389 1167 453963
327	773052 88 12596 20189 26.277809129097 41.504612728023 3 389 389 1167 453963
328	773140 164 12596 20189 26.277809129097 41.504612728023 6 0 1 3 3
329	773304 88 12596 20189 26.277809129097 41.504612728023 3 389 389 1167 453963
330	773392 82 12596 20189 26.277809129097 41.504612728023 3 0 0 0 0
331	773474 88 12596 20189 26.277809129097 41.504612728023 3 405 405 1215 492075
332	773562 118 11939 23018 25.36825153511 45.965977176092 4 389 389 1556 605284
333	773680 118 11939 23018 25.36825153511 45.965977176092 4 389 389 1556 605284
334	773798 220 11939 23018 25.36825153511 45.965977176092 8 0 1 4 4
335	774018 118 11939 23018 25.36825153511 45.965977176092 4 389 389 1556 605284
336	774136 110 11939 23018 25.36825153511 45.965977176092 4 0 0 0 0
337	774246 118 11939 23018 25.36825153511 45.965977176092 4 405 405 1620 656100
338	774364 90 12969 21279 27.265977822244 43.103662000504 3 389 389 1167 453963
339	774454 90 12969 21279 27.265977822244 43.103662000504 3 389 389 1167 453963
340	774544 168 12969 21279 27.265977822244 43.103662000504 6 0 1 3 3
341	774712 90 12969 21279 27.265977822244 43.103662000504 3 389 389 1167 453963
342	774802 84 12969 21279 27.265977822244 43.103662000504 3 0 0 0 0
343	774886 90 12969 21279 27.265977822244 43.103662000504 3 405 405 1215 492075
344	774976 90 12036 20086 25.456825552974 41.482603135519 3 389 389 1167 453963
345	775066 90 12036 20086 25.456825552974 41.482603135519 3 389 389 1167 453963
346	775156 168 12036 20086 25.456825552974 41.482603135519 6 0 1 3 3
347	775324 90 12036 20086 25.456825552974 41.482603135519 3 389 389 1167 453963
348	775414 84 12036 20086 25.456825552974 41.482603135519 3 0 0 0 0
349	775498 90 12036 20086 25.456825552974 41.482603135519 3 405 405 1215 492075
350	775588 372 10371 24837 23.262636898797 48.786440791871 12 1024 1024 12288 12582912
351	775960 372 10372 24838 23.262636898797 48.786440791871 12 1032 1032 12384 12780288
352	776332 769 9918 24926 22.11824626228 48.787189162535 25 1108 1108 27700 30691600
353	777101 372 10406 24872 23.263011131113 48.786815022524 12 1108 1108 13296 14731968
354	777473 372 10404 24870 23.263011130546 48.786814966586 12 1108 1108 13296 14731968
355	777845 803 9916 24991 22.118246171968 48.787563472411 26 1108 1108 28808 31919264
356	778648 402 9925 24937 22.118246454591 48.787189425052 13 1108 1108 14404 15959632
357	779050 709 9927 24982 22.118246487719 48.787563124721 23 1108 1108 25484 28236272
358	779759 401 9980 24984 22.118620588224 48.787563433779 13 1108 1108 14404 15959632
359	780160 464 11306 25043 24.213628239354 48.787937600513 15 1108 1108 16620 18414960
360	780624 340 11308 25045 24.213628318879 48.787937616138 11 1108 1108 12188 13504304
361	780964 248 11358 25095 24.214001945776 48.788311197116 8 1032 1032 8256 8520192
362	781212 225 11358 25095 24.214001945776 48.788311197116 8 3 10 52 380
363	781437 248 11359 25096 24.214001945776 48.788311197116 8 1024 1024 8192 8388608
364	781685 4670 11359 25096 21.2 48.7 276 0 81920 655360 53687091200
365	786355 327 11359 25096 24.214001945776 48.788311197116 8 0.001870405245 0.001870490646 0.014963718505 2.7989108944876e-05
366	786682 231 11359 25096 24.214001945776 48.788311197116 8 9 19 111 1645
367	786913 248 11361 25098 24.214002283034 48.788311603145 8 1108 1108 8864 9821312
368	787161 153 9977 22616 22.118620566451 44.77288889234 5 1032 1032 5160 5325120
369	787314 139 9977 22616 22.118620566451 44.77288889234 5 6 10 40 330
370	787453 153 9978 22617 22.118620566451 44.77288889234 5 1024 1024 5120 5242880
371	787606 4038 9978 22617 20.8 44.7 240 0 81920 409600 33554432000
372	791644 203 9978 22617 22.118620566451 44.77288889234 5 0.001122622354 0.001122761753 0.005613536561 6.302358566587e-06
373	791847 141 9978 22617 22.118620566451 44.77288889234 5 7 16 58 734
vector 374 FanetSecureSybil.host[0].app[0] throughput:vector ETV
attr source throughput(packetReceived)
attr title "throughput, vector"
attr unit bps
364	792138 351 25821 25821 48.8 50.609137731432 20 0 81920 81920 6710886400
371	792489 1023 25821 25821 44.8 50.609137731432 60 0 81920 81920 6710886400
374	793512 8431 25821 25821 0.1 50.609137731432 507 0 0 0 0

