version 2
run SybilAttack-0-20220520-15:50:45-54191
attr configname SybilAttack
attr datetime 20220520-15:50:45
attr experiment SybilAttack
attr inifile omnetpp.ini
attr iterationvars ""
attr iterationvarsf ""
attr measurement ""
attr network FanetSybil
attr processid 54191
attr repetition 0
attr replication #0
attr resultdir results
attr runnumber 0
attr seedset 0
param *.attacker[*].mobility.typename "\"MassMobility\""
param *.attacker[*].mobility.changeInterval 1s
param *.attacker[*].mobility.initialMovementHeading "uniform(0deg, 360deg)"
param *.attacker[*].mobility.initialMovementElevation "uniform(-90deg, 90deg)"
param *.attacker[*].mobility.angleDelta uniform(-10deg,10deg)
param *.attacker[*].mobility.rotationAxisAngle uniform(-10deg,10deg)
param *.attacker[*].mobility.speed uniform(10mps,20mps)
param *.attacker[*].mobility.faceForward false
param *.attacker*.wlan[0].typename "\"AckingWirelessInterface\""
param *.attacker*.wlan[0].radio.transmitter.communicationRange 400m
param *.attacker*.wlan[0].radio.displayCommunicationRange true
param *.host[0].numApps 1
param *.host[0].app[0].typename "\"UdpBasicApp\""
param *.host[0].app[0].startTime uniform(1s,5s)
param *.host[0].app[0].destAddresses "\"host[10]\""
param *.host[0].app[0].destPort 5000
param *.host[0].app[0].messageLength 1000B
param *.host[0].app[0].sendInterval exponential(1s)
param *.host[0].app[0].packetName "\"UDPdata\""
param *.host[10].numApps 1
param *.host[10].app[0].typename "\"UdpSink\""
param *.host[10].app[0].localPort 5000
param **.wlan[*].bitrate 24Mbps
param *.configurator.addStaticRoutes false
param **.netmaskRoutes "\"\""
param **.arp.typename "\"GlobalArp\""
param *.host*.wlan[0].typename "\"AckingWirelessInterface\""
param *.host*.wlan[0].radio.transmitter.communicationRange 400m
param *.host*.wlan[0].radio.displayCommunicationRange true
param *.visualizer.osgVisualizer.typename "\"IntegratedOsgVisualizer\""
param *.visualizer.osgVisualizer.sceneVisualizer.clearColor "\"skyblue\""
param *.visualizer.osgVisualizer.sceneVisualizer.sceneImage "\"showcases/desert\""
param *.visualizer.osgVisualizer.sceneVisualizer.sceneImageSize 5000m
param *.visualizer.osgVisualizer.sceneVisualizer.axisLength 1000m
param *.visualizer.osgVisualizer.sceneVisualizer.sceneMinX -2000m
param *.visualizer.osgVisualizer.sceneVisualizer.sceneMinY -2000m
param *.visualizer.osgVisualizer.sceneVisualizer.sceneMinZ 0m
param *.visualizer.osgVisualizer.sceneVisualizer.sceneMaxX 3000m
param *.visualizer.osgVisualizer.sceneVisualizer.sceneMaxY 3000m
param *.visualizer.osgVisualizer.sceneVisualizer.sceneMaxZ 1000m
param *.visualizer.osgVisualizer.networkNodeVisualizer.displayModuleName false
param *.visualizer.*.mobilityVisualizer.displayMobility true
param *.visualizer.*.mobilityVisualizer.displayPositions true
param *.visualizer.*.mobilityVisualizer.displayOrientations true
param *.visualizer.*.mobilityVisualizer.displayVelocities true
param *.visualizer.*.mobilityVisualizer.displayMovementTrails true
param *.visualizer.*.mobilityVisualizer.animationSpeed 1
param *.visualizer.*.packetDropVisualizer.displayPacketDrops false
param *.visualizer.*.packetDropVisualizer.labelFormat "\"%n/reason: %r\""
param *.visualizer.*.packetDropVisualizer.fadeOutTime 10s
param **.constraintAreaMinX 0m
param **.constraintAreaMinY 0m
param **.constraintAreaMinZ 0m
param **.constraintAreaMaxX 2500m
param **.constraintAreaMaxY 2000m
param **.constraintAreaMaxZ 200m
param *.visualizer.*.mediumVisualizer.signalPropagationAnimationSpeed 500/3e8
param *.visualizer.*.mediumVisualizer.signalTransmissionAnimationSpeed 50000/3e8
param *.visualizer.*.mediumVisualizer.displaySignals false
param *.visualizer.*.mediumVisualizer.displayTransmissions false
param *.visualizer.*.mediumVisualizer.displayReceptions false
param *.visualizer.*.mediumVisualizer.transmissionPlacementPriority 10
param *.visualizer.*.mediumVisualizer.receptionPlacementPriority 10
param *.visualizer.*.mediumVisualizer.displaySignals false
param *.visualizer.*.mediumVisualizer.signalFadingDistance 50m
param *.visualizer.*.mediumVisualizer.signalRingSize 50m
param *.visualizer.osgVisualizer.mediumVisualizer.signalShape "\"both\""
param *.host[*].osgModel "\"3d/drone.ive.100.scale.0,0,90.rot\""
param *.host[*].mobility.typename "\"MassMobility\""
param *.host[*].mobility.changeInterval 1s
param *.host[*].mobility.initialMovementHeading "uniform(0deg, 360deg)"
param *.host[*].mobility.initialMovementElevation "uniform(-90deg, 90deg)"
param *.host[*].mobility.angleDelta uniform(-10deg,10deg)
param *.host[*].mobility.rotationAxisAngle uniform(-10deg,10deg)
param *.host[*].mobility.speed uniform(10mps,20mps)
param *.host[*].mobility.faceForward false

vector 0 FanetSybil.host[0].wlan[0].radio radioMode:vector ETV
attr interpolationmode sample-hold
attr source radioModeChanged
attr title "Radio mode, vector"
vector 1 FanetSybil.host[1].wlan[0].radio radioMode:vector ETV
attr interpolationmode sample-hold
attr source radioModeChanged
attr title "Radio mode, vector"
vector 2 FanetSybil.host[2].wlan[0].radio radioMode:vector ETV
attr interpolationmode sample-hold
attr source radioModeChanged
attr title "Radio mode, vector"
vector 3 FanetSybil.host[3].wlan[0].radio radioMode:vector ETV
attr interpolationmode sample-hold
attr source radioModeChanged
attr title "Radio mode, vector"
vector 4 FanetSybil.host[4].wlan[0].radio radioMode:vector ETV
attr interpolationmode sample-hold
attr source radioModeChanged
attr title "Radio mode, vector"
vector 5 FanetSybil.host[5].wlan[0].radio radioMode:vector ETV
attr interpolationmode sample-hold
attr source radioModeChanged
attr title "Radio mode, vector"
vector 6 FanetSybil.host[6].wlan[0].radio radioMode:vector ETV
attr interpolationmode sample-hold
attr source radioModeChanged
attr title "Radio mode, vector"
vector 7 FanetSybil.host[7].wlan[0].radio radioMode:vector ETV
attr interpolationmode sample-hold
attr source radioModeChanged
attr title "Radio mode, vector"
vector 8 FanetSybil.host[8].wlan[0].radio radioMode:vector ETV
attr interpolationmode sample-hold
attr source radioModeChanged
attr title "Radio mode, vector"
vector 9 FanetSybil.host[9].wlan[0].radio radioMode:vector ETV
attr interpolationmode sample-hold
attr source radioModeChanged
attr title "Radio mode, vector"
vector 10 FanetSybil.host[10].wlan[0].radio radioMode:vector ETV
attr interpolationmode sample-hold
attr source radioModeChanged
attr title "Radio mode, vector"
vector 11 FanetSybil.host[11].wlan[0].radio radioMode:vector ETV
attr interpolationmode sample-hold
attr source radioModeChanged
attr title "Radio mode, vector"
vector 12 FanetSybil.host[12].wlan[0].radio radioMode:vector ETV
attr interpolationmode sample-hold
attr source radioModeChanged
attr title "Radio mode, vector"
vector 13 FanetSybil.host[13].wlan[0].radio radioMode:vector ETV
attr interpolationmode sample-hold
attr source radioModeChanged
attr title "Radio mode, vector"
vector 14 FanetSybil.host[14].wlan[0].radio radioMode:vector ETV
attr interpolationmode sample-hold
attr source radioModeChanged
attr title "Radio mode, vector"
vector 15 FanetSybil.host[15].wlan[0].radio radioMode:vector ETV
attr interpolationmode sample-hold
attr source radioModeChanged
attr title "Radio mode, vector"
vector 16 FanetSybil.host[16].wlan[0].radio radioMode:vector ETV
attr interpolationmode sample-hold
attr source radioModeChanged
attr title "Radio mode, vector"
vector 17 FanetSybil.host[17].wlan[0].radio radioMode:vector ETV
attr interpolationmode sample-hold
attr source radioModeChanged
attr title "Radio mode, vector"
vector 18 FanetSybil.host[18].wlan[0].radio radioMode:vector ETV
attr interpolationmode sample-hold
attr source radioModeChanged
attr title "Radio mode, vector"
vector 19 FanetSybil.host[19].wlan[0].radio radioMode:vector ETV
attr interpolationmode sample-hold
attr source radioModeChanged
attr title "Radio mode, vector"
vector 20 FanetSybil.host[20].wlan[0].radio radioMode:vector ETV
attr interpolationmode sample-hold
attr source radioModeChanged
attr title "Radio mode, vector"
vector 21 FanetSybil.host[21].wlan[0].radio radioMode:vector ETV
attr interpolationmode sample-hold
attr source radioModeChanged
attr title "Radio mode, vector"
vector 22 FanetSybil.host[22].wlan[0].radio radioMode:vector ETV
attr interpolationmode sample-hold
attr source radioModeChanged
attr title "Radio mode, vector"
vector 23 FanetSybil.host[23].wlan[0].radio radioMode:vector ETV
attr interpolationmode sample-hold
attr source radioModeChanged
attr title "Radio mode, vector"
vector 24 FanetSybil.host[24].wlan[0].radio radioMode:vector ETV
attr interpolationmode sample-hold
attr source radioModeChanged
attr title "Radio mode, vector"
vector 25 FanetSybil.host[25].wlan[0].radio radioMode:vector ETV
attr interpolationmode sample-hold
attr source radioModeChanged
attr title "Radio mode, vector"
vector 26 FanetSybil.host[26].wlan[0].radio radioMode:vector ETV
attr interpolationmode sample-hold
attr source radioModeChanged
attr title "Radio mode, vector"
vector 27 FanetSybil.host[27].wlan[0].radio radioMode:vector ETV
attr interpolationmode sample-hold
attr source radioModeChanged
attr title "Radio mode, vector"
vector 28 FanetSybil.host[28].wlan[0].radio radioMode:vector ETV
attr interpolationmode sample-hold
attr source radioModeChanged
attr title "Radio mode, vector"
vector 29 FanetSybil.host[29].wlan[0].radio radioMode:vector ETV
attr interpolationmode sample-hold
attr source radioModeChanged
attr title "Radio mode, vector"
vector 30 FanetSybil.host[0].wlan[0].radio receptionState:vector ETV
attr interpolationmode sample-hold
attr source receptionStateChanged
attr title "Radio reception state, vector"
vector 31 FanetSybil.host[0].wlan[0].radio transmissionState:vector ETV
attr interpolationmode sample-hold
attr source transmissionStateChanged
attr title "Radio transmission state, vector"
vector 32 FanetSybil.host[1].wlan[0].radio receptionState:vector ETV
attr interpolationmode sample-hold
attr source receptionStateChanged
attr title "Radio reception state, vector"
vector 33 FanetSybil.host[1].wlan[0].radio transmissionState:vector ETV
attr interpolationmode sample-hold
attr source transmissionStateChanged
attr title "Radio transmission state, vector"
vector 34 FanetSybil.host[2].wlan[0].radio receptionState:vector ETV
attr interpolationmode sample-hold
attr source receptionStateChanged
attr title "Radio reception state, vector"
vector 35 FanetSybil.host[2].wlan[0].radio transmissionState:vector ETV
attr interpolationmode sample-hold
attr source transmissionStateChanged
attr title "Radio transmission state, vector"
vector 36 FanetSybil.host[3].wlan[0].radio receptionState:vector ETV
attr interpolationmode sample-hold
attr source receptionStateChanged
attr title "Radio reception state, vector"
vector 37 FanetSybil.host[3].wlan[0].radio transmissionState:vector ETV
attr interpolationmode sample-hold
attr source transmissionStateChanged
attr title "Radio transmission state, vector"
vector 38 FanetSybil.host[4].wlan[0].radio receptionState:vector ETV
attr interpolationmode sample-hold
attr source receptionStateChanged
attr title "Radio reception state, vector"
vector 39 FanetSybil.host[4].wlan[0].radio transmissionState:vector ETV
attr interpolationmode sample-hold
attr source transmissionStateChanged
attr title "Radio transmission state, vector"
vector 40 FanetSybil.host[5].wlan[0].radio receptionState:vector ETV
attr interpolationmode sample-hold
attr source receptionStateChanged
attr title "Radio reception state, vector"
vector 41 FanetSybil.host[5].wlan[0].radio transmissionState:vector ETV
attr interpolationmode sample-hold
attr source transmissionStateChanged
attr title "Radio transmission state, vector"
vector 42 FanetSybil.host[6].wlan[0].radio receptionState:vector ETV
attr interpolationmode sample-hold
attr source receptionStateChanged
attr title "Radio reception state, vector"
vector 43 FanetSybil.host[6].wlan[0].radio transmissionState:vector ETV
attr interpolationmode sample-hold
attr source transmissionStateChanged
attr title "Radio transmission state, vector"
vector 44 FanetSybil.host[7].wlan[0].radio receptionState:vector ETV
attr interpolationmode sample-hold
attr source receptionStateChanged
attr title "Radio reception state, vector"
vector 45 FanetSybil.host[7].wlan[0].radio transmissionState:vector ETV
attr interpolationmode sample-hold
attr source transmissionStateChanged
attr title "Radio transmission state, vector"
vector 46 FanetSybil.host[8].wlan[0].radio receptionState:vector ETV
attr interpolationmode sample-hold
attr source receptionStateChanged
attr title "Radio reception state, vector"
vector 47 FanetSybil.host[8].wlan[0].radio transmissionState:vector ETV
attr interpolationmode sample-hold
attr source transmissionStateChanged
attr title "Radio transmission state, vector"
vector 48 FanetSybil.host[9].wlan[0].radio receptionState:vector ETV
attr interpolationmode sample-hold
attr source receptionStateChanged
attr title "Radio reception state, vector"
vector 49 FanetSybil.host[9].wlan[0].radio transmissionState:vector ETV
attr interpolationmode sample-hold
attr source transmissionStateChanged
attr title "Radio transmission state, vector"
vector 50 FanetSybil.host[10].wlan[0].radio receptionState:vector ETV
attr interpolationmode sample-hold
attr source receptionStateChanged
attr title "Radio reception state, vector"
vector 51 FanetSybil.host[10].wlan[0].radio transmissionState:vector ETV
attr interpolationmode sample-hold
attr source transmissionStateChanged
attr title "Radio transmission state, vector"
vector 52 FanetSybil.host[11].wlan[0].radio receptionState:vector ETV
attr interpolationmode sample-hold
attr source receptionStateChanged
attr title "Radio reception state, vector"
vector 53 FanetSybil.host[11].wlan[0].radio transmissionState:vector ETV
attr interpolationmode sample-hold
attr source transmissionStateChanged
attr title "Radio transmission state, vector"
vector 54 FanetSybil.host[12].wlan[0].radio receptionState:vector ETV
attr interpolationmode sample-hold
attr source receptionStateChanged
attr title "Radio reception state, vector"
vector 55 FanetSybil.host[12].wlan[0].radio transmissionState:vector ETV
attr interpolationmode sample-hold
attr source transmissionStateChanged
attr title "Radio transmission state, vector"
vector 56 FanetSybil.host[13].wlan[0].radio receptionState:vector ETV
attr interpolationmode sample-hold
attr source receptionStateChanged
attr title "Radio reception state, vector"
vector 57 FanetSybil.host[13].wlan[0].radio transmissionState:vector ETV
attr interpolationmode sample-hold
attr source transmissionStateChanged
attr title "Radio transmission state, vector"
vector 58 FanetSybil.host[14].wlan[0].radio receptionState:vector ETV
attr interpolationmode sample-hold
attr source receptionStateChanged
attr title "Radio reception state, vector"
vector 59 FanetSybil.host[14].wlan[0].radio transmissionState:vector ETV
attr interpolationmode sample-hold
attr source transmissionStateChanged
attr title "Radio transmission state, vector"
vector 60 FanetSybil.host[15].wlan[0].radio receptionState:vector ETV
attr interpolationmode sample-hold
attr source receptionStateChanged
attr title "Radio reception state, vector"
vector 61 FanetSybil.host[15].wlan[0].radio transmissionState:vector ETV
attr interpolationmode sample-hold
attr source transmissionStateChanged
attr title "Radio transmission state, vector"
vector 62 FanetSybil.host[16].wlan[0].radio receptionState:vector ETV
attr interpolationmode sample-hold
attr source receptionStateChanged
attr title "Radio reception state, vector"
vector 63 FanetSybil.host[16].wlan[0].radio transmissionState:vector ETV
attr interpolationmode sample-hold
attr source transmissionStateChanged
attr title "Radio transmission state, vector"
vector 64 FanetSybil.host[17].wlan[0].radio receptionState:vector ETV
attr interpolationmode sample-hold
attr source receptionStateChanged
attr title "Radio reception state, vector"
vector 65 FanetSybil.host[17].wlan[0].radio transmissionState:vector ETV
attr interpolationmode sample-hold
attr source transmissionStateChanged
attr title "Radio transmission state, vector"
vector 66 FanetSybil.host[18].wlan[0].radio receptionState:vector ETV
attr interpolationmode sample-hold
attr source receptionStateChanged
attr title "Radio reception state, vector"
vector 67 FanetSybil.host[18].wlan[0].radio transmissionState:vector ETV
attr interpolationmode sample-hold
attr source transmissionStateChanged
attr title "Radio transmission state, vector"
vector 68 FanetSybil.host[19].wlan[0].radio receptionState:vector ETV
attr interpolationmode sample-hold
attr source receptionStateChanged
attr title "Radio reception state, vector"
vector 69 FanetSybil.host[19].wlan[0].radio transmissionState:vector ETV
attr interpolationmode sample-hold
attr source transmissionStateChanged
attr title "Radio transmission state, vector"
vector 70 FanetSybil.host[20].wlan[0].radio receptionState:vector ETV
attr interpolationmode sample-hold
attr source receptionStateChanged
attr title "Radio reception state, vector"
vector 71 FanetSybil.host[20].wlan[0].radio transmissionState:vector ETV
attr interpolationmode sample-hold
attr source transmissionStateChanged
attr title "Radio transmission state, vector"
vector 72 FanetSybil.host[21].wlan[0].radio receptionState:vector ETV
attr interpolationmode sample-hold
attr source receptionStateChanged
attr title "Radio reception state, vector"
vector 73 FanetSybil.host[21].wlan[0].radio transmissionState:vector ETV
attr interpolationmode sample-hold
attr source transmissionStateChanged
attr title "Radio transmission state, vector"
vector 74 FanetSybil.host[22].wlan[0].radio receptionState:vector ETV
attr interpolationmode sample-hold
attr source receptionStateChanged
attr title "Radio reception state, vector"
vector 75 FanetSybil.host[22].wlan[0].radio transmissionState:vector ETV
attr interpolationmode sample-hold
attr source transmissionStateChanged
attr title "Radio transmission state, vector"
vector 76 FanetSybil.host[23].wlan[0].radio receptionState:vector ETV
attr interpolationmode sample-hold
attr source receptionStateChanged
attr title "Radio reception state, vector"
vector 77 FanetSybil.host[23].wlan[0].radio transmissionState:vector ETV
attr interpolationmode sample-hold
attr source transmissionStateChanged
attr title "Radio transmission state, vector"
vector 78 FanetSybil.host[24].wlan[0].radio receptionState:vector ETV
attr interpolationmode sample-hold
attr source receptionStateChanged
attr title "Radio reception state, vector"
vector 79 FanetSybil.host[24].wlan[0].radio transmissionState:vector ETV
attr interpolationmode sample-hold
attr source transmissionStateChanged
attr title "Radio transmission state, vector"
vector 80 FanetSybil.host[25].wlan[0].radio receptionState:vector ETV
attr interpolationmode sample-hold
attr source receptionStateChanged
attr title "Radio reception state, vector"
vector 81 FanetSybil.host[25].wlan[0].radio transmissionState:vector ETV
attr interpolationmode sample-hold
attr source transmissionStateChanged
attr title "Radio transmission state, vector"
vector 82 FanetSybil.host[26].wlan[0].radio receptionState:vector ETV
attr interpolationmode sample-hold
attr source receptionStateChanged
attr title "Radio reception state, vector"
vector 83 FanetSybil.host[26].wlan[0].radio transmissionState:vector ETV
attr interpolationmode sample-hold
attr source transmissionStateChanged
attr title "Radio transmission state, vector"
vector 84 FanetSybil.host[27].wlan[0].radio receptionState:vector ETV
attr interpolationmode sample-hold
attr source receptionStateChanged
attr title "Radio reception state, vector"
vector 85 FanetSybil.host[27].wlan[0].radio transmissionState:vector ETV
attr interpolationmode sample-hold
attr source transmissionStateChanged
attr title "Radio transmission state, vector"
vector 86 FanetSybil.host[28].wlan[0].radio receptionState:vector ETV
attr interpolationmode sample-hold
attr source receptionStateChanged
attr title "Radio reception state, vector"
vector 87 FanetSybil.host[28].wlan[0].radio transmissionState:vector ETV
attr interpolationmode sample-hold
attr source transmissionStateChanged
attr title "Radio transmission state, vector"
vector 88 FanetSybil.host[29].wlan[0].radio receptionState:vector ETV
attr interpolationmode sample-hold
attr source receptionStateChanged
attr title "Radio reception state, vector"
vector 89 FanetSybil.host[29].wlan[0].radio transmissionState:vector ETV
attr interpolationmode sample-hold
attr source transmissionStateChanged
attr title "Radio transmission state, vector"
vector 90 FanetSybil.host[0].app[0] packetSent:vector(packetBytes) ETV
attr interpolationmode none
attr source packetSent
attr title "packets sent, vector(packetBytes)"
vector 91 FanetSybil.host[0].udp packetSent:vector(packetBytes) ETV
attr interpolationmode none
attr source packetSent
attr title "packets sent, vector(packetBytes)"
vector 92 FanetSybil.host[14].wlan[0].mac rcvdPkFromHl:vector(packetBytes) ETV
attr interpolationmode none
attr source packetReceivedFromUpper
attr title "packets received from higher layer, vector(packetBytes)"
vector 93 FanetSybil.host[14].wlan[0].mac.queue packetPushed:vector(packetBytes) ETV
attr interpolationmode none
attr title "packet pushed, vector(packetBytes)"
vector 94 FanetSybil.host[14].wlan[0].mac.queue queueLength:vector ETV
attr interpolationmode sample-hold
attr source "count(packetPushed) - count(packetPopped) - count(packetRemoved) - count(packetDropped)"
attr title "queue length, vector"
vector 95 FanetSybil.host[14].wlan[0].mac.queue packetPopped:vector(packetBytes) ETV
attr interpolationmode none
attr title "packet popped, vector(packetBytes)"
vector 96 FanetSybil.host[14].wlan[0].mac.queue queueingTime:vector ETV
attr interpolationmode none
attr source queueingTime(packetPopped)
attr title "queueing times, vector"
attr unit s
vector 97 FanetSybil.host[14].wlan[0].mac sentDownPk:vector(packetBytes) ETV
attr interpolationmode none
attr source packetSentToLower
attr title "packets sent to lower layer, vector(packetBytes)"
vector 98 FanetSybil.host[4].wlan[0].mac rcvdPkFromLl:vector(packetBytes) ETV
attr interpolationmode none
attr source packetReceivedFromLower
attr title "packets received from lower layer, vector(packetBytes)"
vector 99 FanetSybil.host[4].wlan[0].mac passedUpPk:vector(packetBytes) ETV
attr interpolationmode none
attr source packetSentToUpper
attr title "packets passed to higher layer, vector(packetBytes)"
vector 100 FanetSybil.host[27].wlan[0].mac rcvdPkFromHl:vector(packetBytes) ETV
attr interpolationmode none
attr source packetReceivedFromUpper
attr title "packets received from higher layer, vector(packetBytes)"
vector 101 FanetSybil.host[27].wlan[0].mac.queue packetPushed:vector(packetBytes) ETV
attr interpolationmode none
attr title "packet pushed, vector(packetBytes)"
vector 102 FanetSybil.host[27].wlan[0].mac.queue queueLength:vector ETV
attr interpolationmode sample-hold
attr source "count(packetPushed) - count(packetPopped) - count(packetRemoved) - count(packetDropped)"
attr title "queue length, vector"
vector 103 FanetSybil.host[27].wlan[0].mac.queue packetPopped:vector(packetBytes) ETV
attr interpolationmode none
attr title "packet popped, vector(packetBytes)"
vector 104 FanetSybil.host[27].wlan[0].mac.queue queueingTime:vector ETV
attr interpolationmode none
attr source queueingTime(packetPopped)
attr title "queueing times, vector"
attr unit s
vector 105 FanetSybil.host[27].wlan[0].mac sentDownPk:vector(packetBytes) ETV
attr interpolationmode none
attr source packetSentToLower
attr title "packets sent to lower layer, vector(packetBytes)"
vector 106 FanetSybil.host[5].wlan[0].mac rcvdPkFromLl:vector(packetBytes) ETV
attr interpolationmode none
attr source packetReceivedFromLower
attr title "packets received from lower layer, vector(packetBytes)"
vector 107 FanetSybil.host[5].wlan[0].mac passedUpPk:vector(packetBytes) ETV
attr interpolationmode none
attr source packetSentToUpper
attr title "packets passed to higher layer, vector(packetBytes)"
vector 108 FanetSybil.host[29].wlan[0].mac rcvdPkFromHl:vector(packetBytes) ETV
attr interpolationmode none
attr source packetReceivedFromUpper
attr title "packets received from higher layer, vector(packetBytes)"
vector 109 FanetSybil.host[29].wlan[0].mac.queue packetPushed:vector(packetBytes) ETV
attr interpolationmode none
attr title "packet pushed, vector(packetBytes)"
vector 110 FanetSybil.host[29].wlan[0].mac.queue queueLength:vector ETV
attr interpolationmode sample-hold
attr source "count(packetPushed) - count(packetPopped) - count(packetRemoved) - count(packetDropped)"
attr title "queue length, vector"
vector 111 FanetSybil.host[29].wlan[0].mac.queue packetPopped:vector(packetBytes) ETV
attr interpolationmode none
attr title "packet popped, vector(packetBytes)"
vector 112 FanetSybil.host[29].wlan[0].mac.queue queueingTime:vector ETV
attr interpolationmode none
attr source queueingTime(packetPopped)
attr title "queueing times, vector"
attr unit s
vector 113 FanetSybil.host[29].wlan[0].mac sentDownPk:vector(packetBytes) ETV
attr interpolationmode none
attr source packetSentToLower
attr title "packets sent to lower layer, vector(packetBytes)"
vector 114 FanetSybil.host[17].wlan[0].mac rcvdPkFromLl:vector(packetBytes) ETV
attr interpolationmode none
attr source packetReceivedFromLower
attr title "packets received from lower layer, vector(packetBytes)"
vector 115 FanetSybil.host[17].wlan[0].mac passedUpPk:vector(packetBytes) ETV
attr interpolationmode none
attr source packetSentToUpper
attr title "packets passed to higher layer, vector(packetBytes)"
vector 116 FanetSybil.host[6].wlan[0].mac rcvdPkFromLl:vector(packetBytes) ETV
attr interpolationmode none
attr source packetReceivedFromLower
attr title "packets received from lower layer, vector(packetBytes)"
vector 117 FanetSybil.host[6].wlan[0].mac passedUpPk:vector(packetBytes) ETV
attr interpolationmode none
attr source packetSentToUpper
attr title "packets passed to higher layer, vector(packetBytes)"
vector 118 FanetSybil.host[16].wlan[0].mac rcvdPkFromHl:vector(packetBytes) ETV
attr interpolationmode none
attr source packetReceivedFromUpper
attr title "packets received from higher layer, vector(packetBytes)"
vector 119 FanetSybil.host[16].wlan[0].mac.queue packetPushed:vector(packetBytes) ETV
attr interpolationmode none
attr title "packet pushed, vector(packetBytes)"
vector 120 FanetSybil.host[16].wlan[0].mac.queue queueLength:vector ETV
attr interpolationmode sample-hold
attr source "count(packetPushed) - count(packetPopped) - count(packetRemoved) - count(packetDropped)"
attr title "queue length, vector"
vector 121 FanetSybil.host[16].wlan[0].mac.queue packetPopped:vector(packetBytes) ETV
attr interpolationmode none
attr title "packet popped, vector(packetBytes)"
vector 122 FanetSybil.host[16].wlan[0].mac.queue queueingTime:vector ETV
attr interpolationmode none
attr source queueingTime(packetPopped)
attr title "queueing times, vector"
attr unit s
vector 123 FanetSybil.host[16].wlan[0].mac sentDownPk:vector(packetBytes) ETV
attr interpolationmode none
attr source packetSentToLower
attr title "packets sent to lower layer, vector(packetBytes)"
vector 124 FanetSybil.host[26].wlan[0].mac rcvdPkFromLl:vector(packetBytes) ETV
attr interpolationmode none
attr source packetReceivedFromLower
attr title "packets received from lower layer, vector(packetBytes)"
vector 125 FanetSybil.host[26].wlan[0].mac passedUpPk:vector(packetBytes) ETV
attr interpolationmode none
attr source packetSentToUpper
attr title "packets passed to higher layer, vector(packetBytes)"
vector 126 FanetSybil.host[18].wlan[0].mac rcvdPkFromLl:vector(packetBytes) ETV
attr interpolationmode none
attr source packetReceivedFromLower
attr title "packets received from lower layer, vector(packetBytes)"
vector 127 FanetSybil.host[18].wlan[0].mac passedUpPk:vector(packetBytes) ETV
attr interpolationmode none
attr source packetSentToUpper
attr title "packets passed to higher layer, vector(packetBytes)"
vector 128 FanetSybil.host[12].wlan[0].mac rcvdPkFromHl:vector(packetBytes) ETV
attr interpolationmode none
attr source packetReceivedFromUpper
attr title "packets received from higher layer, vector(packetBytes)"
vector 129 FanetSybil.host[12].wlan[0].mac.queue packetPushed:vector(packetBytes) ETV
attr interpolationmode none
attr title "packet pushed, vector(packetBytes)"
vector 130 FanetSybil.host[12].wlan[0].mac.queue queueLength:vector ETV
attr interpolationmode sample-hold
attr source "count(packetPushed) - count(packetPopped) - count(packetRemoved) - count(packetDropped)"
attr title "queue length, vector"
vector 131 FanetSybil.host[12].wlan[0].mac.queue packetPopped:vector(packetBytes) ETV
attr interpolationmode none
attr title "packet popped, vector(packetBytes)"
vector 132 FanetSybil.host[12].wlan[0].mac.queue queueingTime:vector ETV
attr interpolationmode none
attr source queueingTime(packetPopped)
attr title "queueing times, vector"
attr unit s
vector 133 FanetSybil.host[12].wlan[0].mac sentDownPk:vector(packetBytes) ETV
attr interpolationmode none
attr source packetSentToLower
attr title "packets sent to lower layer, vector(packetBytes)"
vector 134 FanetSybil.host[0].wlan[0].mac rcvdPkFromLl:vector(packetBytes) ETV
attr interpolationmode none
attr source packetReceivedFromLower
attr title "packets received from lower layer, vector(packetBytes)"
vector 135 FanetSybil.host[0].wlan[0].mac passedUpPk:vector(packetBytes) ETV
attr interpolationmode none
attr source packetSentToUpper
attr title "packets passed to higher layer, vector(packetBytes)"
vector 136 FanetSybil.host[23].wlan[0].mac rcvdPkFromLl:vector(packetBytes) ETV
attr interpolationmode none
attr source packetReceivedFromLower
attr title "packets received from lower layer, vector(packetBytes)"
vector 137 FanetSybil.host[23].wlan[0].mac passedUpPk:vector(packetBytes) ETV
attr interpolationmode none
attr source packetSentToUpper
attr title "packets passed to higher layer, vector(packetBytes)"
vector 138 FanetSybil.host[20].wlan[0].mac rcvdPkFromLl:vector(packetBytes) ETV
attr interpolationmode none
attr source packetReceivedFromLower
attr title "packets received from lower layer, vector(packetBytes)"
vector 139 FanetSybil.host[20].wlan[0].mac passedUpPk:vector(packetBytes) ETV
attr interpolationmode none
attr source packetSentToUpper
attr title "packets passed to higher layer, vector(packetBytes)"
vector 140 FanetSybil.host[28].wlan[0].mac rcvdPkFromHl:vector(packetBytes) ETV
attr interpolationmode none
attr source packetReceivedFromUpper
attr title "packets received from higher layer, vector(packetBytes)"
vector 141 FanetSybil.host[28].wlan[0].mac.queue packetPushed:vector(packetBytes) ETV
attr interpolationmode none
attr title "packet pushed, vector(packetBytes)"
vector 142 FanetSybil.host[28].wlan[0].mac.queue queueLength:vector ETV
attr interpolationmode sample-hold
attr source "count(packetPushed) - count(packetPopped) - count(packetRemoved) - count(packetDropped)"
attr title "queue length, vector"
vector 143 FanetSybil.host[28].wlan[0].mac.queue packetPopped:vector(packetBytes) ETV
attr interpolationmode none
attr title "packet popped, vector(packetBytes)"
vector 144 FanetSybil.host[28].wlan[0].mac.queue queueingTime:vector ETV
attr interpolationmode none
attr source queueingTime(packetPopped)
attr title "queueing times, vector"
attr unit s
vector 145 FanetSybil.host[28].wlan[0].mac sentDownPk:vector(packetBytes) ETV
attr interpolationmode none
attr source packetSentToLower
attr title "packets sent to lower layer, vector(packetBytes)"
vector 146 FanetSybil.host[21].wlan[0].mac rcvdPkFromLl:vector(packetBytes) ETV
attr interpolationmode none
attr source packetReceivedFromLower
attr title "packets received from lower layer, vector(packetBytes)"
vector 147 FanetSybil.host[21].wlan[0].mac passedUpPk:vector(packetBytes) ETV
attr interpolationmode none
attr source packetSentToUpper
attr title "packets passed to higher layer, vector(packetBytes)"
vector 148 FanetSybil.host[1].wlan[0].mac rcvdPkFromLl:vector(packetBytes) ETV
attr interpolationmode none
attr source packetReceivedFromLower
attr title "packets received from lower layer, vector(packetBytes)"
vector 149 FanetSybil.host[1].wlan[0].mac passedUpPk:vector(packetBytes) ETV
attr interpolationmode none
attr source packetSentToUpper
attr title "packets passed to higher layer, vector(packetBytes)"
vector 150 FanetSybil.host[9].wlan[0].mac rcvdPkFromLl:vector(packetBytes) ETV
attr interpolationmode none
attr source packetReceivedFromLower
attr title "packets received from lower layer, vector(packetBytes)"
vector 151 FanetSybil.host[9].wlan[0].mac passedUpPk:vector(packetBytes) ETV
attr interpolationmode none
attr source packetSentToUpper
attr title "packets passed to higher layer, vector(packetBytes)"
vector 152 FanetSybil.host[7].wlan[0].mac rcvdPkFromLl:vector(packetBytes) ETV
attr interpolationmode none
attr source packetReceivedFromLower
attr title "packets received from lower layer, vector(packetBytes)"
vector 153 FanetSybil.host[7].wlan[0].mac passedUpPk:vector(packetBytes) ETV
attr interpolationmode none
attr source packetSentToUpper
attr title "packets passed to higher layer, vector(packetBytes)"
vector 154 FanetSybil.host[0].wlan[0].mac rcvdPkFromHl:vector(packetBytes) ETV
attr interpolationmode none
attr source packetReceivedFromUpper
attr title "packets received from higher layer, vector(packetBytes)"
vector 155 FanetSybil.host[0].wlan[0].mac.queue packetPushed:vector(packetBytes) ETV
attr interpolationmode none
attr title "packet pushed, vector(packetBytes)"
vector 156 FanetSybil.host[0].wlan[0].mac.queue queueLength:vector ETV
attr interpolationmode sample-hold
attr source "count(packetPushed) - count(packetPopped) - count(packetRemoved) - count(packetDropped)"
attr title "queue length, vector"
vector 157 FanetSybil.host[0].wlan[0].mac.queue packetPopped:vector(packetBytes) ETV
attr interpolationmode none
attr title "packet popped, vector(packetBytes)"
vector 158 FanetSybil.host[0].wlan[0].mac.queue queueingTime:vector ETV
attr interpolationmode none
attr source queueingTime(packetPopped)
attr title "queueing times, vector"
attr unit s
vector 159 FanetSybil.host[0].wlan[0].mac sentDownPk:vector(packetBytes) ETV
attr interpolationmode none
attr source packetSentToLower
attr title "packets sent to lower layer, vector(packetBytes)"
vector 160 FanetSybil.host[12].wlan[0].mac rcvdPkFromLl:vector(packetBytes) ETV
attr interpolationmode none
attr source packetReceivedFromLower
attr title "packets received from lower layer, vector(packetBytes)"
vector 161 FanetSybil.host[12].wlan[0].mac passedUpPk:vector(packetBytes) ETV
attr interpolationmode none
attr source packetSentToUpper
attr title "packets passed to higher layer, vector(packetBytes)"
vector 162 FanetSybil.host[20].wlan[0].mac packetDropNotAddressedToUs:vector(packetBytes) ETV
attr interpolationmode none
attr source packetDropReasonIsNotAddressedToUs(packetDropped)
attr title "packet drop: not addressed to us, vector(packetBytes)"
vector 163 FanetSybil.host[5].wlan[0].mac packetDropNotAddressedToUs:vector(packetBytes) ETV
attr interpolationmode none
attr source packetDropReasonIsNotAddressedToUs(packetDropped)
attr title "packet drop: not addressed to us, vector(packetBytes)"
vector 164 FanetSybil.host[17].wlan[0].mac rcvdPkFromHl:vector(packetBytes) ETV
attr interpolationmode none
attr source packetReceivedFromUpper
attr title "packets received from higher layer, vector(packetBytes)"
vector 165 FanetSybil.host[17].wlan[0].mac.queue packetPushed:vector(packetBytes) ETV
attr interpolationmode none
attr title "packet pushed, vector(packetBytes)"
vector 166 FanetSybil.host[17].wlan[0].mac.queue queueLength:vector ETV
attr interpolationmode sample-hold
attr source "count(packetPushed) - count(packetPopped) - count(packetRemoved) - count(packetDropped)"
attr title "queue length, vector"
vector 167 FanetSybil.host[17].wlan[0].mac.queue packetPopped:vector(packetBytes) ETV
attr interpolationmode none
attr title "packet popped, vector(packetBytes)"
vector 168 FanetSybil.host[17].wlan[0].mac.queue queueingTime:vector ETV
attr interpolationmode none
attr source queueingTime(packetPopped)
attr title "queueing times, vector"
attr unit s
vector 169 FanetSybil.host[17].wlan[0].mac sentDownPk:vector(packetBytes) ETV
attr interpolationmode none
attr source packetSentToLower
attr title "packets sent to lower layer, vector(packetBytes)"
vector 170 FanetSybil.host[29].wlan[0].mac rcvdPkFromLl:vector(packetBytes) ETV
attr interpolationmode none
attr source packetReceivedFromLower
attr title "packets received from lower layer, vector(packetBytes)"
vector 171 FanetSybil.host[29].wlan[0].mac passedUpPk:vector(packetBytes) ETV
attr interpolationmode none
attr source packetSentToUpper
attr title "packets passed to higher layer, vector(packetBytes)"
vector 172 FanetSybil.host[10].wlan[0].mac rcvdPkFromHl:vector(packetBytes) ETV
attr interpolationmode none
attr source packetReceivedFromUpper
attr title "packets received from higher layer, vector(packetBytes)"
vector 173 FanetSybil.host[10].wlan[0].mac.queue packetPushed:vector(packetBytes) ETV
attr interpolationmode none
attr title "packet pushed, vector(packetBytes)"
vector 174 FanetSybil.host[10].wlan[0].mac.queue queueLength:vector ETV
attr interpolationmode sample-hold
attr source "count(packetPushed) - count(packetPopped) - count(packetRemoved) - count(packetDropped)"
attr title "queue length, vector"
vector 175 FanetSybil.host[10].wlan[0].mac.queue packetPopped:vector(packetBytes) ETV
attr interpolationmode none
attr title "packet popped, vector(packetBytes)"
vector 176 FanetSybil.host[10].wlan[0].mac.queue queueingTime:vector ETV
attr interpolationmode none
attr source queueingTime(packetPopped)
attr title "queueing times, vector"
attr unit s
vector 177 FanetSybil.host[10].wlan[0].mac sentDownPk:vector(packetBytes) ETV
attr interpolationmode none
attr source packetSentToLower
attr title "packets sent to lower layer, vector(packetBytes)"
vector 178 FanetSybil.host[19].wlan[0].mac rcvdPkFromLl:vector(packetBytes) ETV
attr interpolationmode none
attr source packetReceivedFromLower
attr title "packets received from lower layer, vector(packetBytes)"
vector 179 FanetSybil.host[19].wlan[0].mac passedUpPk:vector(packetBytes) ETV
attr interpolationmode none
attr source packetSentToUpper
attr title "packets passed to higher layer, vector(packetBytes)"
vector 180 FanetSybil.host[11].wlan[0].mac rcvdPkFromLl:vector(packetBytes) ETV
attr interpolationmode none
attr source packetReceivedFromLower
attr title "packets received from lower layer, vector(packetBytes)"
vector 181 FanetSybil.host[11].wlan[0].mac passedUpPk:vector(packetBytes) ETV
attr interpolationmode none
attr source packetSentToUpper
attr title "packets passed to higher layer, vector(packetBytes)"
vector 182 FanetSybil.host[24].wlan[0].mac rcvdPkFromHl:vector(packetBytes) ETV
attr interpolationmode none
attr source packetReceivedFromUpper
attr title "packets received from higher layer, vector(packetBytes)"
vector 183 FanetSybil.host[24].wlan[0].mac.queue packetPushed:vector(packetBytes) ETV
attr interpolationmode none
attr title "packet pushed, vector(packetBytes)"
vector 184 FanetSybil.host[24].wlan[0].mac.queue queueLength:vector ETV
attr interpolationmode sample-hold
attr source "count(packetPushed) - count(packetPopped) - count(packetRemoved) - count(packetDropped)"
attr title "queue length, vector"
vector 185 FanetSybil.host[24].wlan[0].mac.queue packetPopped:vector(packetBytes) ETV
attr interpolationmode none
attr title "packet popped, vector(packetBytes)"
vector 186 FanetSybil.host[24].wlan[0].mac.queue queueingTime:vector ETV
attr interpolationmode none
attr source queueingTime(packetPopped)
attr title "queueing times, vector"
attr unit s
vector 187 FanetSybil.host[24].wlan[0].mac sentDownPk:vector(packetBytes) ETV
attr interpolationmode none
attr source packetSentToLower
attr title "packets sent to lower layer, vector(packetBytes)"
vector 188 FanetSybil.host[7].wlan[0].mac rcvdPkFromHl:vector(packetBytes) ETV
attr interpolationmode none
attr source packetReceivedFromUpper
attr title "packets received from higher layer, vector(packetBytes)"
vector 189 FanetSybil.host[7].wlan[0].mac.queue packetPushed:vector(packetBytes) ETV
attr interpolationmode none
attr title "packet pushed, vector(packetBytes)"
vector 190 FanetSybil.host[7].wlan[0].mac.queue queueLength:vector ETV
attr interpolationmode sample-hold
attr source "count(packetPushed) - count(packetPopped) - count(packetRemoved) - count(packetDropped)"
attr title "queue length, vector"
vector 191 FanetSybil.host[7].wlan[0].mac.queue packetPopped:vector(packetBytes) ETV
attr interpolationmode none
attr title "packet popped, vector(packetBytes)"
vector 192 FanetSybil.host[7].wlan[0].mac.queue queueingTime:vector ETV
attr interpolationmode none
attr source queueingTime(packetPopped)
attr title "queueing times, vector"
attr unit s
vector 193 FanetSybil.host[7].wlan[0].mac sentDownPk:vector(packetBytes) ETV
attr interpolationmode none
attr source packetSentToLower
attr title "packets sent to lower layer, vector(packetBytes)"
vector 194 FanetSybil.host[28].wlan[0].mac rcvdPkFromLl:vector(packetBytes) ETV
attr interpolationmode none
attr source packetReceivedFromLower
attr title "packets received from lower layer, vector(packetBytes)"
vector 195 FanetSybil.host[28].wlan[0].mac passedUpPk:vector(packetBytes) ETV
attr interpolationmode none
attr source packetSentToUpper
attr title "packets passed to higher layer, vector(packetBytes)"
vector 196 FanetSybil.host[11].wlan[0].mac rcvdPkFromHl:vector(packetBytes) ETV
attr interpolationmode none
attr source packetReceivedFromUpper
attr title "packets received from higher layer, vector(packetBytes)"
vector 197 FanetSybil.host[11].wlan[0].mac.queue packetPushed:vector(packetBytes) ETV
attr interpolationmode none
attr title "packet pushed, vector(packetBytes)"
vector 198 FanetSybil.host[11].wlan[0].mac.queue queueLength:vector ETV
attr interpolationmode sample-hold
attr source "count(packetPushed) - count(packetPopped) - count(packetRemoved) - count(packetDropped)"
attr title "queue length, vector"
vector 199 FanetSybil.host[11].wlan[0].mac.queue packetPopped:vector(packetBytes) ETV
attr interpolationmode none
attr title "packet popped, vector(packetBytes)"
vector 200 FanetSybil.host[11].wlan[0].mac.queue queueingTime:vector ETV
attr interpolationmode none
attr source queueingTime(packetPopped)
attr title "queueing times, vector"
attr unit s
vector 201 FanetSybil.host[11].wlan[0].mac sentDownPk:vector(packetBytes) ETV
attr interpolationmode none
attr source packetSentToLower
attr title "packets sent to lower layer, vector(packetBytes)"
vector 202 FanetSybil.host[10].wlan[0].mac rcvdPkFromLl:vector(packetBytes) ETV
attr interpolationmode none
attr source packetReceivedFromLower
attr title "packets received from lower layer, vector(packetBytes)"
vector 203 FanetSybil.host[10].wlan[0].mac passedUpPk:vector(packetBytes) ETV
attr interpolationmode none
attr source packetSentToUpper
attr title "packets passed to higher layer, vector(packetBytes)"
vector 204 FanetSybil.host[18].wlan[0].mac rcvdPkFromHl:vector(packetBytes) ETV
attr interpolationmode none
attr source packetReceivedFromUpper
attr title "packets received from higher layer, vector(packetBytes)"
vector 205 FanetSybil.host[18].wlan[0].mac.queue packetPushed:vector(packetBytes) ETV
attr interpolationmode none
attr title "packet pushed, vector(packetBytes)"
vector 206 FanetSybil.host[18].wlan[0].mac.queue queueLength:vector ETV
attr interpolationmode sample-hold
attr source "count(packetPushed) - count(packetPopped) - count(packetRemoved) - count(packetDropped)"
attr title "queue length, vector"
vector 207 FanetSybil.host[18].wlan[0].mac.queue packetPopped:vector(packetBytes) ETV
attr interpolationmode none
attr title "packet popped, vector(packetBytes)"
vector 208 FanetSybil.host[18].wlan[0].mac.queue queueingTime:vector ETV
attr interpolationmode none
attr source queueingTime(packetPopped)
attr title "queueing times, vector"
attr unit s
vector 209 FanetSybil.host[18].wlan[0].mac sentDownPk:vector(packetBytes) ETV
attr interpolationmode none
attr source packetSentToLower
attr title "packets sent to lower layer, vector(packetBytes)"
vector 210 FanetSybil.host[16].wlan[0].mac rcvdPkFromLl:vector(packetBytes) ETV
attr interpolationmode none
attr source packetReceivedFromLower
attr title "packets received from lower layer, vector(packetBytes)"
vector 211 FanetSybil.host[16].wlan[0].mac passedUpPk:vector(packetBytes) ETV
attr interpolationmode none
attr source packetSentToUpper
attr title "packets passed to higher layer, vector(packetBytes)"
vector 212 FanetSybil.host[22].wlan[0].mac rcvdPkFromHl:vector(packetBytes) ETV
attr interpolationmode none
attr source packetReceivedFromUpper
attr title "packets received from higher layer, vector(packetBytes)"
vector 213 FanetSybil.host[22].wlan[0].mac.queue packetPushed:vector(packetBytes) ETV
attr interpolationmode none
attr title "packet pushed, vector(packetBytes)"
vector 214 FanetSybil.host[22].wlan[0].mac.queue queueLength:vector ETV
attr interpolationmode sample-hold
attr source "count(packetPushed) - count(packetPopped) - count(packetRemoved) - count(packetDropped)"
attr title "queue length, vector"
vector 215 FanetSybil.host[22].wlan[0].mac.queue packetPopped:vector(packetBytes) ETV
attr interpolationmode none
attr title "packet popped, vector(packetBytes)"
vector 216 FanetSybil.host[22].wlan[0].mac.queue queueingTime:vector ETV
attr interpolationmode none
attr source queueingTime(packetPopped)
attr title "queueing times, vector"
attr unit s
vector 217 FanetSybil.host[22].wlan[0].mac sentDownPk:vector(packetBytes) ETV
attr interpolationmode none
attr source packetSentToLower
attr title "packets sent to lower layer, vector(packetBytes)"
vector 218 FanetSybil.host[25].wlan[0].mac rcvdPkFromLl:vector(packetBytes) ETV
attr interpolationmode none
attr source packetReceivedFromLower
attr title "packets received from lower layer, vector(packetBytes)"
vector 219 FanetSybil.host[25].wlan[0].mac passedUpPk:vector(packetBytes) ETV
attr interpolationmode none
attr source packetSentToUpper
attr title "packets passed to higher layer, vector(packetBytes)"
vector 220 FanetSybil.host[15].wlan[0].mac rcvdPkFromLl:vector(packetBytes) ETV
attr interpolationmode none
attr source packetReceivedFromLower
attr title "packets received from lower layer, vector(packetBytes)"
vector 221 FanetSybil.host[15].wlan[0].mac passedUpPk:vector(packetBytes) ETV
attr interpolationmode none
attr source packetSentToUpper
attr title "packets passed to higher layer, vector(packetBytes)"
vector 222 FanetSybil.host[3].wlan[0].mac rcvdPkFromLl:vector(packetBytes) ETV
attr interpolationmode none
attr source packetReceivedFromLower
attr title "packets received from lower layer, vector(packetBytes)"
vector 223 FanetSybil.host[3].wlan[0].mac passedUpPk:vector(packetBytes) ETV
attr interpolationmode none
attr source packetSentToUpper
attr title "packets passed to higher layer, vector(packetBytes)"
vector 224 FanetSybil.host[13].wlan[0].mac rcvdPkFromLl:vector(packetBytes) ETV
attr interpolationmode none
attr source packetReceivedFromLower
attr title "packets received from lower layer, vector(packetBytes)"
vector 225 FanetSybil.host[13].wlan[0].mac passedUpPk:vector(packetBytes) ETV
attr interpolationmode none
attr source packetSentToUpper
attr title "packets passed to higher layer, vector(packetBytes)"
vector 226 FanetSybil.host[21].wlan[0].mac rcvdPkFromHl:vector(packetBytes) ETV
attr interpolationmode none
attr source packetReceivedFromUpper
attr title "packets received from higher layer, vector(packetBytes)"
vector 227 FanetSybil.host[21].wlan[0].mac.queue packetPushed:vector(packetBytes) ETV
attr interpolationmode none
attr title "packet pushed, vector(packetBytes)"
vector 228 FanetSybil.host[21].wlan[0].mac.queue queueLength:vector ETV
attr interpolationmode sample-hold
attr source "count(packetPushed) - count(packetPopped) - count(packetRemoved) - count(packetDropped)"
attr title "queue length, vector"
vector 229 FanetSybil.host[21].wlan[0].mac.queue packetPopped:vector(packetBytes) ETV
attr interpolationmode none
attr title "packet popped, vector(packetBytes)"
vector 230 FanetSybil.host[21].wlan[0].mac.queue queueingTime:vector ETV
attr interpolationmode none
attr source queueingTime(packetPopped)
attr title "queueing times, vector"
attr unit s
vector 231 FanetSybil.host[21].wlan[0].mac sentDownPk:vector(packetBytes) ETV
attr interpolationmode none
attr source packetSentToLower
attr title "packets sent to lower layer, vector(packetBytes)"
vector 232 FanetSybil.host[5].wlan[0].mac rcvdPkFromHl:vector(packetBytes) ETV
attr interpolationmode none
attr source packetReceivedFromUpper
attr title "packets received from higher layer, vector(packetBytes)"
vector 233 FanetSybil.host[5].wlan[0].mac.queue packetPushed:vector(packetBytes) ETV
attr interpolationmode none
attr title "packet pushed, vector(packetBytes)"
vector 234 FanetSybil.host[5].wlan[0].mac.queue queueLength:vector ETV
attr interpolationmode sample-hold
attr source "count(packetPushed) - count(packetPopped) - count(packetRemoved) - count(packetDropped)"
attr title "queue length, vector"
vector 235 FanetSybil.host[5].wlan[0].mac.queue packetPopped:vector(packetBytes) ETV
attr interpolationmode none
attr title "packet popped, vector(packetBytes)"
vector 236 FanetSybil.host[5].wlan[0].mac.queue queueingTime:vector ETV
attr interpolationmode none
attr source queueingTime(packetPopped)
attr title "queueing times, vector"
attr unit s
vector 237 FanetSybil.host[5].wlan[0].mac sentDownPk:vector(packetBytes) ETV
attr interpolationmode none
attr source packetSentToLower
attr title "packets sent to lower layer, vector(packetBytes)"
vector 238 FanetSybil.host[27].wlan[0].mac rcvdPkFromLl:vector(packetBytes) ETV
attr interpolationmode none
attr source packetReceivedFromLower
attr title "packets received from lower layer, vector(packetBytes)"
vector 239 FanetSybil.host[27].wlan[0].mac passedUpPk:vector(packetBytes) ETV
attr interpolationmode none
attr source packetSentToUpper
attr title "packets passed to higher layer, vector(packetBytes)"
vector 240 FanetSybil.host[0].wlan[0].mac packetDropNotAddressedToUs:vector(packetBytes) ETV
attr interpolationmode none
attr source packetDropReasonIsNotAddressedToUs(packetDropped)
attr title "packet drop: not addressed to us, vector(packetBytes)"
vector 241 FanetSybil.host[23].wlan[0].mac packetDropNotAddressedToUs:vector(packetBytes) ETV
attr interpolationmode none
attr source packetDropReasonIsNotAddressedToUs(packetDropped)
attr title "packet drop: not addressed to us, vector(packetBytes)"
vector 242 FanetSybil.host[12].wlan[0].mac packetDropNotAddressedToUs:vector(packetBytes) ETV
attr interpolationmode none
attr source packetDropReasonIsNotAddressedToUs(packetDropped)
attr title "packet drop: not addressed to us, vector(packetBytes)"
vector 243 FanetSybil.host[27].wlan[0].mac packetDropNotAddressedToUs:vector(packetBytes) ETV
attr interpolationmode none
attr source packetDropReasonIsNotAddressedToUs(packetDropped)
attr title "packet drop: not addressed to us, vector(packetBytes)"
vector 244 FanetSybil.host[5].ipv4.ip packetDropHopLimitReached:vector(packetBytes) ETV
attr interpolationmode none
attr source packetDropReasonIsHopLimitReached(packetDropped)
attr title "packet drop: hop limit reached, vector(packetBytes)"
vector 245 FanetSybil.host[23].wlan[0].mac rcvdPkFromHl:vector(packetBytes) ETV
attr interpolationmode none
attr source packetReceivedFromUpper
attr title "packets received from higher layer, vector(packetBytes)"
vector 246 FanetSybil.host[23].wlan[0].mac.queue packetPushed:vector(packetBytes) ETV
attr interpolationmode none
attr title "packet pushed, vector(packetBytes)"
vector 247 FanetSybil.host[23].wlan[0].mac.queue queueLength:vector ETV
attr interpolationmode sample-hold
attr source "count(packetPushed) - count(packetPopped) - count(packetRemoved) - count(packetDropped)"
attr title "queue length, vector"
vector 248 FanetSybil.host[23].wlan[0].mac.queue packetPopped:vector(packetBytes) ETV
attr interpolationmode none
attr title "packet popped, vector(packetBytes)"
vector 249 FanetSybil.host[23].wlan[0].mac.queue queueingTime:vector ETV
attr interpolationmode none
attr source queueingTime(packetPopped)
attr title "queueing times, vector"
attr unit s
vector 250 FanetSybil.host[23].wlan[0].mac sentDownPk:vector(packetBytes) ETV
attr interpolationmode none
attr source packetSentToLower
attr title "packets sent to lower layer, vector(packetBytes)"
vector 251 FanetSybil.host[3].wlan[0].mac rcvdPkFromHl:vector(packetBytes) ETV
attr interpolationmode none
attr source packetReceivedFromUpper
attr title "packets received from higher layer, vector(packetBytes)"
vector 252 FanetSybil.host[3].wlan[0].mac.queue packetPushed:vector(packetBytes) ETV
attr interpolationmode none
attr title "packet pushed, vector(packetBytes)"
vector 253 FanetSybil.host[3].wlan[0].mac.queue queueLength:vector ETV
attr interpolationmode sample-hold
attr source "count(packetPushed) - count(packetPopped) - count(packetRemoved) - count(packetDropped)"
attr title "queue length, vector"
vector 254 FanetSybil.host[3].wlan[0].mac.queue packetPopped:vector(packetBytes) ETV
attr interpolationmode none
attr title "packet popped, vector(packetBytes)"
vector 255 FanetSybil.host[3].wlan[0].mac.queue queueingTime:vector ETV
attr interpolationmode none
attr source queueingTime(packetPopped)
attr title "queueing times, vector"
attr unit s
vector 256 FanetSybil.host[3].wlan[0].mac sentDownPk:vector(packetBytes) ETV
attr interpolationmode none
attr source packetSentToLower
attr title "packets sent to lower layer, vector(packetBytes)"
vector 257 FanetSybil.host[22].wlan[0].mac rcvdPkFromLl:vector(packetBytes) ETV
attr interpolationmode none
attr source packetReceivedFromLower
attr title "packets received from lower layer, vector(packetBytes)"
vector 258 FanetSybil.host[22].wlan[0].mac passedUpPk:vector(packetBytes) ETV
attr interpolationmode none
attr source packetSentToUpper
attr title "packets passed to higher layer, vector(packetBytes)"
vector 259 FanetSybil.host[8].wlan[0].mac rcvdPkFromHl:vector(packetBytes) ETV
attr interpolationmode none
attr source packetReceivedFromUpper
attr title "packets received from higher layer, vector(packetBytes)"
vector 260 FanetSybil.host[8].wlan[0].mac.queue packetPushed:vector(packetBytes) ETV
attr interpolationmode none
attr title "packet pushed, vector(packetBytes)"
vector 261 FanetSybil.host[8].wlan[0].mac.queue queueLength:vector ETV
attr interpolationmode sample-hold
attr source "count(packetPushed) - count(packetPopped) - count(packetRemoved) - count(packetDropped)"
attr title "queue length, vector"
vector 262 FanetSybil.host[8].wlan[0].mac.queue packetPopped:vector(packetBytes) ETV
attr interpolationmode none
attr title "packet popped, vector(packetBytes)"
vector 263 FanetSybil.host[8].wlan[0].mac.queue queueingTime:vector ETV
attr interpolationmode none
attr source queueingTime(packetPopped)
attr title "queueing times, vector"
attr unit s
vector 264 FanetSybil.host[8].wlan[0].mac sentDownPk:vector(packetBytes) ETV
attr interpolationmode none
attr source packetSentToLower
attr title "packets sent to lower layer, vector(packetBytes)"
vector 265 FanetSybil.host[9].wlan[0].mac rcvdPkFromHl:vector(packetBytes) ETV
attr interpolationmode none
attr source packetReceivedFromUpper
attr title "packets received from higher layer, vector(packetBytes)"
vector 266 FanetSybil.host[9].wlan[0].mac.queue packetPushed:vector(packetBytes) ETV
attr interpolationmode none
attr title "packet pushed, vector(packetBytes)"
vector 267 FanetSybil.host[9].wlan[0].mac.queue queueLength:vector ETV
attr interpolationmode sample-hold
attr source "count(packetPushed) - count(packetPopped) - count(packetRemoved) - count(packetDropped)"
attr title "queue length, vector"
vector 268 FanetSybil.host[9].wlan[0].mac.queue packetPopped:vector(packetBytes) ETV
attr interpolationmode none
attr title "packet popped, vector(packetBytes)"
vector 269 FanetSybil.host[9].wlan[0].mac.queue queueingTime:vector ETV
attr interpolationmode none
attr source queueingTime(packetPopped)
attr title "queueing times, vector"
attr unit s
vector 270 FanetSybil.host[9].wlan[0].mac sentDownPk:vector(packetBytes) ETV
attr interpolationmode none
attr source packetSentToLower
attr title "packets sent to lower layer, vector(packetBytes)"
vector 271 FanetSybil.host[23].ipv4.ip packetDropHopLimitReached:vector(packetBytes) ETV
attr interpolationmode none
attr source packetDropReasonIsHopLimitReached(packetDropped)
attr title "packet drop: hop limit reached, vector(packetBytes)"
vector 272 FanetSybil.host[1].wlan[0].mac rcvdPkFromHl:vector(packetBytes) ETV
attr interpolationmode none
attr source packetReceivedFromUpper
attr title "packets received from higher layer, vector(packetBytes)"
vector 273 FanetSybil.host[1].wlan[0].mac.queue packetPushed:vector(packetBytes) ETV
attr interpolationmode none
attr title "packet pushed, vector(packetBytes)"
vector 274 FanetSybil.host[1].wlan[0].mac.queue queueLength:vector ETV
attr interpolationmode sample-hold
attr source "count(packetPushed) - count(packetPopped) - count(packetRemoved) - count(packetDropped)"
attr title "queue length, vector"
vector 275 FanetSybil.host[1].wlan[0].mac.queue packetPopped:vector(packetBytes) ETV
attr interpolationmode none
attr title "packet popped, vector(packetBytes)"
vector 276 FanetSybil.host[1].wlan[0].mac.queue queueingTime:vector ETV
attr interpolationmode none
attr source queueingTime(packetPopped)
attr title "queueing times, vector"
attr unit s
vector 277 FanetSybil.host[1].wlan[0].mac sentDownPk:vector(packetBytes) ETV
attr interpolationmode none
attr source packetSentToLower
attr title "packets sent to lower layer, vector(packetBytes)"
vector 278 FanetSybil.host[19].wlan[0].mac rcvdPkFromHl:vector(packetBytes) ETV
attr interpolationmode none
attr source packetReceivedFromUpper
attr title "packets received from higher layer, vector(packetBytes)"
vector 279 FanetSybil.host[19].wlan[0].mac.queue packetPushed:vector(packetBytes) ETV
attr interpolationmode none
attr title "packet pushed, vector(packetBytes)"
vector 280 FanetSybil.host[19].wlan[0].mac.queue queueLength:vector ETV
attr interpolationmode sample-hold
attr source "count(packetPushed) - count(packetPopped) - count(packetRemoved) - count(packetDropped)"
attr title "queue length, vector"
vector 281 FanetSybil.host[19].wlan[0].mac.queue packetPopped:vector(packetBytes) ETV
attr interpolationmode none
attr title "packet popped, vector(packetBytes)"
vector 282 FanetSybil.host[19].wlan[0].mac.queue queueingTime:vector ETV
attr interpolationmode none
attr source queueingTime(packetPopped)
attr title "queueing times, vector"
attr unit s
vector 283 FanetSybil.host[19].wlan[0].mac sentDownPk:vector(packetBytes) ETV
attr interpolationmode none
attr source packetSentToLower
attr title "packets sent to lower layer, vector(packetBytes)"
vector 284 FanetSybil.host[20].wlan[0].mac rcvdPkFromHl:vector(packetBytes) ETV
attr interpolationmode none
attr source packetReceivedFromUpper
attr title "packets received from higher layer, vector(packetBytes)"
vector 285 FanetSybil.host[20].wlan[0].mac.queue packetPushed:vector(packetBytes) ETV
attr interpolationmode none
attr title "packet pushed, vector(packetBytes)"
vector 286 FanetSybil.host[20].wlan[0].mac.queue queueLength:vector ETV
attr interpolationmode sample-hold
attr source "count(packetPushed) - count(packetPopped) - count(packetRemoved) - count(packetDropped)"
attr title "queue length, vector"
vector 287 FanetSybil.host[20].wlan[0].mac.queue packetPopped:vector(packetBytes) ETV
attr interpolationmode none
attr title "packet popped, vector(packetBytes)"
vector 288 FanetSybil.host[20].wlan[0].mac.queue queueingTime:vector ETV
attr interpolationmode none
attr source queueingTime(packetPopped)
attr title "queueing times, vector"
attr unit s
vector 289 FanetSybil.host[20].wlan[0].mac sentDownPk:vector(packetBytes) ETV
attr interpolationmode none
attr source packetSentToLower
attr title "packets sent to lower layer, vector(packetBytes)"
vector 290 FanetSybil.host[26].wlan[0].mac rcvdPkFromHl:vector(packetBytes) ETV
attr interpolationmode none
attr source packetReceivedFromUpper
attr title "packets received from higher layer, vector(packetBytes)"
vector 291 FanetSybil.host[26].wlan[0].mac.queue packetPushed:vector(packetBytes) ETV
attr interpolationmode none
attr title "packet pushed, vector(packetBytes)"
vector 292 FanetSybil.host[26].wlan[0].mac.queue queueLength:vector ETV
attr interpolationmode sample-hold
attr source "count(packetPushed) - count(packetPopped) - count(packetRemoved) - count(packetDropped)"
attr title "queue length, vector"
vector 293 FanetSybil.host[26].wlan[0].mac.queue packetPopped:vector(packetBytes) ETV
attr interpolationmode none
attr title "packet popped, vector(packetBytes)"
vector 294 FanetSybil.host[26].wlan[0].mac.queue queueingTime:vector ETV
attr interpolationmode none
attr source queueingTime(packetPopped)
attr title "queueing times, vector"
attr unit s
vector 295 FanetSybil.host[26].wlan[0].mac sentDownPk:vector(packetBytes) ETV
attr interpolationmode none
attr source packetSentToLower
attr title "packets sent to lower layer, vector(packetBytes)"
vector 296 FanetSybil.host[2].wlan[0].mac rcvdPkFromHl:vector(packetBytes) ETV
attr interpolationmode none
attr source packetReceivedFromUpper
attr title "packets received from higher layer, vector(packetBytes)"
vector 297 FanetSybil.host[2].wlan[0].mac.queue packetPushed:vector(packetBytes) ETV
attr interpolationmode none
attr title "packet pushed, vector(packetBytes)"
vector 298 FanetSybil.host[2].wlan[0].mac.queue queueLength:vector ETV
attr interpolationmode sample-hold
attr source "count(packetPushed) - count(packetPopped) - count(packetRemoved) - count(packetDropped)"
attr title "queue length, vector"
vector 299 FanetSybil.host[2].wlan[0].mac.queue packetPopped:vector(packetBytes) ETV
attr interpolationmode none
attr title "packet popped, vector(packetBytes)"
vector 300 FanetSybil.host[2].wlan[0].mac.queue queueingTime:vector ETV
attr interpolationmode none
attr source queueingTime(packetPopped)
attr title "queueing times, vector"
attr unit s
vector 301 FanetSybil.host[2].wlan[0].mac sentDownPk:vector(packetBytes) ETV
attr interpolationmode none
attr source packetSentToLower
attr title "packets sent to lower layer, vector(packetBytes)"
vector 302 FanetSybil.host[6].wlan[0].mac rcvdPkFromHl:vector(packetBytes) ETV
attr interpolationmode none
attr source packetReceivedFromUpper
attr title "packets received from higher layer, vector(packetBytes)"
vector 303 FanetSybil.host[6].wlan[0].mac.queue packetPushed:vector(packetBytes) ETV
attr interpolationmode none
attr title "packet pushed, vector(packetBytes)"
vector 304 FanetSybil.host[6].wlan[0].mac.queue queueLength:vector ETV
attr interpolationmode sample-hold
attr source "count(packetPushed) - count(packetPopped) - count(packetRemoved) - count(packetDropped)"
attr title "queue length, vector"
vector 305 FanetSybil.host[6].wlan[0].mac.queue packetPopped:vector(packetBytes) ETV
attr interpolationmode none
attr title "packet popped, vector(packetBytes)"
vector 306 FanetSybil.host[6].wlan[0].mac.queue queueingTime:vector ETV
attr interpolationmode none
attr source queueingTime(packetPopped)
attr title "queueing times, vector"
attr unit s
vector 307 FanetSybil.host[6].wlan[0].mac sentDownPk:vector(packetBytes) ETV
attr interpolationmode none
attr source packetSentToLower
attr title "packets sent to lower layer, vector(packetBytes)"
vector 308 FanetSybil.host[4].wlan[0].mac rcvdPkFromHl:vector(packetBytes) ETV
attr interpolationmode none
attr source packetReceivedFromUpper
attr title "packets received from higher layer, vector(packetBytes)"
vector 309 FanetSybil.host[4].wlan[0].mac.queue packetPushed:vector(packetBytes) ETV
attr interpolationmode none
attr title "packet pushed, vector(packetBytes)"
vector 310 FanetSybil.host[4].wlan[0].mac.queue queueLength:vector ETV
attr interpolationmode sample-hold
attr source "count(packetPushed) - count(packetPopped) - count(packetRemoved) - count(packetDropped)"
attr title "queue length, vector"
vector 311 FanetSybil.host[4].wlan[0].mac.queue packetPopped:vector(packetBytes) ETV
attr interpolationmode none
attr title "packet popped, vector(packetBytes)"
vector 312 FanetSybil.host[4].wlan[0].mac.queue queueingTime:vector ETV
attr interpolationmode none
attr source queueingTime(packetPopped)
attr title "queueing times, vector"
attr unit s
vector 313 FanetSybil.host[4].wlan[0].mac sentDownPk:vector(packetBytes) ETV
attr interpolationmode none
attr source packetSentToLower
attr title "packets sent to lower layer, vector(packetBytes)"
vector 314 FanetSybil.host[14].wlan[0].mac rcvdPkFromLl:vector(packetBytes) ETV
attr interpolationmode none
attr source packetReceivedFromLower
attr title "packets received from lower layer, vector(packetBytes)"
vector 315 FanetSybil.host[14].wlan[0].mac passedUpPk:vector(packetBytes) ETV
attr interpolationmode none
attr source packetSentToUpper
attr title "packets passed to higher layer, vector(packetBytes)"
vector 316 FanetSybil.host[24].wlan[0].mac rcvdPkFromLl:vector(packetBytes) ETV
attr interpolationmode none
attr source packetReceivedFromLower
attr title "packets received from lower layer, vector(packetBytes)"
vector 317 FanetSybil.host[24].wlan[0].mac passedUpPk:vector(packetBytes) ETV
attr interpolationmode none
attr source packetSentToUpper
attr title "packets passed to higher layer, vector(packetBytes)"
vector 318 FanetSybil.host[0].ipv4.ip packetDropHopLimitReached:vector(packetBytes) ETV
attr interpolationmode none
attr source packetDropReasonIsHopLimitReached(packetDropped)
attr title "packet drop: hop limit reached, vector(packetBytes)"
vector 319 FanetSybil.host[0].lo[0].lo rcvdPkFromHl:vector(packetBytes) ETV
attr interpolationmode none
attr source packetReceivedFromUpper
attr title "packets received from higher layer, vector(packetBytes)"
vector 320 FanetSybil.host[0].lo[0].lo passedUpPk:vector(packetBytes) ETV
attr interpolationmode none
attr source packetSentToUpper
attr title "packets passed to higher layer, vector(packetBytes)"
vector 321 FanetSybil.host[13].wlan[0].mac rcvdPkFromHl:vector(packetBytes) ETV
attr interpolationmode none
attr source packetReceivedFromUpper
attr title "packets received from higher layer, vector(packetBytes)"
vector 322 FanetSybil.host[13].wlan[0].mac.queue packetPushed:vector(packetBytes) ETV
attr interpolationmode none
attr title "packet pushed, vector(packetBytes)"
vector 323 FanetSybil.host[13].wlan[0].mac.queue queueLength:vector ETV
attr interpolationmode sample-hold
attr source "count(packetPushed) - count(packetPopped) - count(packetRemoved) - count(packetDropped)"
attr title "queue length, vector"
vector 324 FanetSybil.host[13].wlan[0].mac.queue packetPopped:vector(packetBytes) ETV
attr interpolationmode none
attr title "packet popped, vector(packetBytes)"
vector 325 FanetSybil.host[13].wlan[0].mac.queue queueingTime:vector ETV
attr interpolationmode none
attr source queueingTime(packetPopped)
attr title "queueing times, vector"
attr unit s
vector 326 FanetSybil.host[13].wlan[0].mac sentDownPk:vector(packetBytes) ETV
attr interpolationmode none
attr source packetSentToLower
attr title "packets sent to lower layer, vector(packetBytes)"
vector 327 FanetSybil.host[25].wlan[0].mac rcvdPkFromHl:vector(packetBytes) ETV
attr interpolationmode none
attr source packetReceivedFromUpper
attr title "packets received from higher layer, vector(packetBytes)"
vector 328 FanetSybil.host[25].wlan[0].mac.queue packetPushed:vector(packetBytes) ETV
attr interpolationmode none
attr title "packet pushed, vector(packetBytes)"
vector 329 FanetSybil.host[25].wlan[0].mac.queue queueLength:vector ETV
attr interpolationmode sample-hold
attr source "count(packetPushed) - count(packetPopped) - count(packetRemoved) - count(packetDropped)"
attr title "queue length, vector"
vector 330 FanetSybil.host[25].wlan[0].mac.queue packetPopped:vector(packetBytes) ETV
attr interpolationmode none
attr title "packet popped, vector(packetBytes)"
vector 331 FanetSybil.host[25].wlan[0].mac.queue queueingTime:vector ETV
attr interpolationmode none
attr source queueingTime(packetPopped)
attr title "queueing times, vector"
attr unit s
vector 332 FanetSybil.host[25].wlan[0].mac sentDownPk:vector(packetBytes) ETV
attr interpolationmode none
attr source packetSentToLower
attr title "packets sent to lower layer, vector(packetBytes)"
vector 333 FanetSybil.host[15].wlan[0].mac rcvdPkFromHl:vector(packetBytes) ETV
attr interpolationmode none
attr source packetReceivedFromUpper
attr title "packets received from higher layer, vector(packetBytes)"
vector 334 FanetSybil.host[15].wlan[0].mac.queue packetPushed:vector(packetBytes) ETV
attr interpolationmode none
attr title "packet pushed, vector(packetBytes)"
vector 335 FanetSybil.host[15].wlan[0].mac.queue queueLength:vector ETV
attr interpolationmode sample-hold
attr source "count(packetPushed) - count(packetPopped) - count(packetRemoved) - count(packetDropped)"
attr title "queue length, vector"
vector 336 FanetSybil.host[15].wlan[0].mac.queue packetPopped:vector(packetBytes) ETV
attr interpolationmode none
attr title "packet popped, vector(packetBytes)"
vector 337 FanetSybil.host[15].wlan[0].mac.queue queueingTime:vector ETV
attr interpolationmode none
attr source queueingTime(packetPopped)
attr title "queueing times, vector"
attr unit s
vector 338 FanetSybil.host[15].wlan[0].mac sentDownPk:vector(packetBytes) ETV
attr interpolationmode none
attr source packetSentToLower
attr title "packets sent to lower layer, vector(packetBytes)"
vector 339 FanetSybil.host[2].wlan[0].mac rcvdPkFromLl:vector(packetBytes) ETV
attr interpolationmode none
attr source packetReceivedFromLower
attr title "packets received from lower layer, vector(packetBytes)"
vector 340 FanetSybil.host[2].wlan[0].mac passedUpPk:vector(packetBytes) ETV
attr interpolationmode none
attr source packetSentToUpper
attr title "packets passed to higher layer, vector(packetBytes)"
vector 341 FanetSybil.host[8].wlan[0].mac rcvdPkFromLl:vector(packetBytes) ETV
attr interpolationmode none
attr source packetReceivedFromLower
attr title "packets received from lower layer, vector(packetBytes)"
vector 342 FanetSybil.host[8].wlan[0].mac passedUpPk:vector(packetBytes) ETV
attr interpolationmode none
attr source packetSentToUpper
attr title "packets passed to higher layer, vector(packetBytes)"
vector 343 FanetSybil.host[6].wlan[0].mac packetDropNotAddressedToUs:vector(packetBytes) ETV
attr interpolationmode none
attr source packetDropReasonIsNotAddressedToUs(packetDropped)
attr title "packet drop: not addressed to us, vector(packetBytes)"
vector 344 FanetSybil.host[29].wlan[0].mac packetDropNotAddressedToUs:vector(packetBytes) ETV
attr interpolationmode none
attr source packetDropReasonIsNotAddressedToUs(packetDropped)
attr title "packet drop: not addressed to us, vector(packetBytes)"
vector 345 FanetSybil.host[2].wlan[0].mac packetDropNotAddressedToUs:vector(packetBytes) ETV
attr interpolationmode none
attr source packetDropReasonIsNotAddressedToUs(packetDropped)
attr title "packet drop: not addressed to us, vector(packetBytes)"
vector 346 FanetSybil.host[6].ipv4.ip packetDropHopLimitReached:vector(packetBytes) ETV
attr interpolationmode none
attr source packetDropReasonIsHopLimitReached(packetDropped)
attr title "packet drop: hop limit reached, vector(packetBytes)"
vector 347 FanetSybil.host[22].wlan[0].mac packetDropNotAddressedToUs:vector(packetBytes) ETV
attr interpolationmode none
attr source packetDropReasonIsNotAddressedToUs(packetDropped)
attr title "packet drop: not addressed to us, vector(packetBytes)"
vector 348 FanetSybil.host[2].wlan[0].mac packetDropIncorrectlyReceived:vector(packetBytes) ETV
attr interpolationmode none
attr source packetDropReasonIsIncorrectlyReceived(packetDropped)
attr title "packet drop: incorrectly received, vector(packetBytes)"
vector 349 FanetSybil.host[6].wlan[0].mac packetDropIncorrectlyReceived:vector(packetBytes) ETV
attr interpolationmode none
attr source packetDropReasonIsIncorrectlyReceived(packetDropped)
attr title "packet drop: incorrectly received, vector(packetBytes)"
vector 350 FanetSybil.host[25].wlan[0].mac packetDropNotAddressedToUs:vector(packetBytes) ETV
attr interpolationmode none
attr source packetDropReasonIsNotAddressedToUs(packetDropped)
attr title "packet drop: not addressed to us, vector(packetBytes)"
vector 351 FanetSybil.host[16].wlan[0].mac packetDropNotAddressedToUs:vector(packetBytes) ETV
attr interpolationmode none
attr source packetDropReasonIsNotAddressedToUs(packetDropped)
attr title "packet drop: not addressed to us, vector(packetBytes)"
vector 352 FanetSybil.host[28].wlan[0].mac packetDropNotAddressedToUs:vector(packetBytes) ETV
attr interpolationmode none
attr source packetDropReasonIsNotAddressedToUs(packetDropped)
attr title "packet drop: not addressed to us, vector(packetBytes)"
vector 353 FanetSybil.host[21].wlan[0].mac packetDropNotAddressedToUs:vector(packetBytes) ETV
attr interpolationmode none
attr source packetDropReasonIsNotAddressedToUs(packetDropped)
attr title "packet drop: not addressed to us, vector(packetBytes)"
vector 354 FanetSybil.host[8].wlan[0].mac packetDropNotAddressedToUs:vector(packetBytes) ETV
attr interpolationmode none
attr source packetDropReasonIsNotAddressedToUs(packetDropped)
attr title "packet drop: not addressed to us, vector(packetBytes)"
vector 355 FanetSybil.host[24].wlan[0].mac packetDropNotAddressedToUs:vector(packetBytes) ETV
attr interpolationmode none
attr source packetDropReasonIsNotAddressedToUs(packetDropped)
attr title "packet drop: not addressed to us, vector(packetBytes)"
vector 356 FanetSybil.host[11].wlan[0].mac packetDropNotAddressedToUs:vector(packetBytes) ETV
attr interpolationmode none
attr source packetDropReasonIsNotAddressedToUs(packetDropped)
attr title "packet drop: not addressed to us, vector(packetBytes)"
vector 357 FanetSybil.host[20].ipv4.ip packetDropHopLimitReached:vector(packetBytes) ETV
attr interpolationmode none
attr source packetDropReasonIsHopLimitReached(packetDropped)
attr title "packet drop: hop limit reached, vector(packetBytes)"
vector 358 FanetSybil.host[18].wlan[0].mac packetDropNotAddressedToUs:vector(packetBytes) ETV
attr interpolationmode none
attr source packetDropReasonIsNotAddressedToUs(packetDropped)
attr title "packet drop: not addressed to us, vector(packetBytes)"
vector 359 FanetSybil.host[26].wlan[0].mac packetDropNotAddressedToUs:vector(packetBytes) ETV
attr interpolationmode none
attr source packetDropReasonIsNotAddressedToUs(packetDropped)
attr title "packet drop: not addressed to us, vector(packetBytes)"
vector 360 FanetSybil.host[17].wlan[0].mac packetDropNotAddressedToUs:vector(packetBytes) ETV
attr interpolationmode none
attr source packetDropReasonIsNotAddressedToUs(packetDropped)
attr title "packet drop: not addressed to us, vector(packetBytes)"
vector 361 FanetSybil.host[24].ipv4.ip packetDropHopLimitReached:vector(packetBytes) ETV
attr interpolationmode none
attr source packetDropReasonIsHopLimitReached(packetDropped)
attr title "packet drop: hop limit reached, vector(packetBytes)"
vector 362 FanetSybil.host[27].ipv4.ip packetDropHopLimitReached:vector(packetBytes) ETV
attr interpolationmode none
attr source packetDropReasonIsHopLimitReached(packetDropped)
attr title "packet drop: hop limit reached, vector(packetBytes)"
vector 363 FanetSybil.host[15].wlan[0].mac packetDropNotAddressedToUs:vector(packetBytes) ETV
attr interpolationmode none
attr source packetDropReasonIsNotAddressedToUs(packetDropped)
attr title "packet drop: not addressed to us, vector(packetBytes)"
vector 364 FanetSybil.host[19].wlan[0].mac packetDropNotAddressedToUs:vector(packetBytes) ETV
attr interpolationmode none
attr source packetDropReasonIsNotAddressedToUs(packetDropped)
attr title "packet drop: not addressed to us, vector(packetBytes)"
vector 365 FanetSybil.host[3].wlan[0].mac packetDropNotAddressedToUs:vector(packetBytes) ETV
attr interpolationmode none
attr source packetDropReasonIsNotAddressedToUs(packetDropped)
attr title "packet drop: not addressed to us, vector(packetBytes)"
vector 366 FanetSybil.host[18].ipv4.ip packetDropHopLimitReached:vector(packetBytes) ETV
attr interpolationmode none
attr source packetDropReasonIsHopLimitReached(packetDropped)
attr title "packet drop: hop limit reached, vector(packetBytes)"
vector 367 FanetSybil.host[19].ipv4.ip packetDropHopLimitReached:vector(packetBytes) ETV
attr interpolationmode none
attr source packetDropReasonIsHopLimitReached(packetDropped)
attr title "packet drop: hop limit reached, vector(packetBytes)"
vector 368 FanetSybil.host[9].wlan[0].mac packetDropNotAddressedToUs:vector(packetBytes) ETV
attr interpolationmode none
attr source packetDropReasonIsNotAddressedToUs(packetDropped)
attr title "packet drop: not addressed to us, vector(packetBytes)"
vector 369 FanetSybil.host[10].wlan[0].mac packetDropNotAddressedToUs:vector(packetBytes) ETV
attr interpolationmode none
attr source packetDropReasonIsNotAddressedToUs(packetDropped)
attr title "packet drop: not addressed to us, vector(packetBytes)"
vector 370 FanetSybil.host[10].udp packetReceived:vector(packetBytes) ETV
attr interpolationmode none
attr source packetReceived
attr title "packets received, vector(packetBytes)"
vector 371 FanetSybil.host[10].udp passedUpPk:vector(count) ETV
attr interpolationmode none
attr source packetSentToUpper
attr title "packets passed up, vector(count)"
vector 372 FanetSybil.host[10].app[0] packetReceived:vector(packetBytes) ETV
attr interpolationmode none
attr source packetReceived
attr title "packets received, vector(packetBytes)"
vector 373 FanetSybil.host[10].app[0] throughput:vector ETV
attr source throughput(packetReceived)
attr title "throughput, vector"
attr unit bps
vector 374 FanetSybil.host[10].app[0] endToEndDelay:vector ETV
attr interpolationmode none
attr source dataAge(packetReceived)
attr title "end-to-end delay, vector"
attr unit s
vector 375 FanetSybil.host[10].app[0] rcvdPkSeqNo:vector ETV
attr interpolationmode none
attr source appPkSeqNo(packetReceived)
attr title "received packet sequence number, vector"
vector 376 FanetSybil.host[9].ipv4.ip packetDropHopLimitReached:vector(packetBytes) ETV
attr interpolationmode none
attr source packetDropReasonIsHopLimitReached(packetDropped)
attr title "packet drop: hop limit reached, vector(packetBytes)"
vector 377 FanetSybil.host[13].wlan[0].mac packetDropNotAddressedToUs:vector(packetBytes) ETV
attr interpolationmode none
attr source packetDropReasonIsNotAddressedToUs(packetDropped)
attr title "packet drop: not addressed to us, vector(packetBytes)"
vector 378 FanetSybil.host[0].app[0] throughput:vector ETV
attr source throughput(packetReceived)
attr title "throughput, vector"
attr unit bps
0	0	0	0
0	0	0	0
0	0	0	4
1	0	0	0
1	0	0	0
1	0	0	4
2	0	0	0
2	0	0	0
2	0	0	4
3	0	0	0
3	0	0	0
3	0	0	4
4	0	0	0
4	0	0	0
4	0	0	4
5	0	0	0
5	0	0	0
5	0	0	4
6	0	0	0
6	0	0	0
6	0	0	4
7	0	0	0
7	0	0	0
7	0	0	4
8	0	0	0
8	0	0	0
8	0	0	4
9	0	0	0
9	0	0	0
9	0	0	4
10	0	0	0
10	0	0	0
10	0	0	4
11	0	0	0
11	0	0	0
11	0	0	4
12	0	0	0
12	0	0	0
12	0	0	4
13	0	0	0
13	0	0	0
13	0	0	4
14	0	0	0
14	0	0	0
14	0	0	4
15	0	0	0
15	0	0	0
15	0	0	4
16	0	0	0
16	0	0	0
16	0	0	4
17	0	0	0
17	0	0	0
17	0	0	4
18	0	0	0
18	0	0	0
18	0	0	4
19	0	0	0
19	0	0	0
19	0	0	4
20	0	0	0
20	0	0	0
20	0	0	4
21	0	0	0
21	0	0	0
21	0	0	4
22	0	0	0
22	0	0	0
22	0	0	4
23	0	0	0
23	0	0	0
23	0	0	4
24	0	0	0
24	0	0	0
[...]
378	425568	393.8	0
378	425568	393.9	0
378	425568	394	0
378	425568	394.1	0
378	425568	394.2	0
378	425568	394.3	0
378	425568	394.4	0
378	425568	394.5	0
378	425568	394.6	0
378	425568	394.7	0
378	425568	394.8	0
378	425568	394.9	0
378	425568	395	0
378	425568	395.1	0
378	425568	395.2	0
378	425568	395.3	0
378	425568	395.4	0
378	425568	395.5	0
378	425568	395.6	0
378	425568	395.7	0
378	425568	395.8	0
378	425568	395.9	0
378	425568	396	0
378	425568	396.1	0
378	425568	396.2	0
378	425568	396.3	0
378	425568	396.4	0
378	425568	396.5	0
378	425568	396.6	0
378	425568	396.7	0
378	425568	396.8	0
378	425568	396.9	0
378	425568	397	0
378	425568	397.1	0
378	425568	397.2	0
378	425568	397.3	0
378	425568	397.4	0
378	425568	397.5	0
378	425568	397.6	0
378	425568	397.7	0
378	425568	397.8	0
378	425568	397.9	0
378	425568	398	0
378	425568	398.1	0
378	425568	398.2	0
378	425568	398.3	0
378	425568	398.4	0
378	425568	398.5	0
378	425568	398.6	0
378	425568	398.7	0
378	425568	398.8	0
378	425568	398.9	0
378	425568	399	0
378	425568	399.1	0
378	425568	399.2	0
378	425568	399.3	0
378	425568	399.4	0
378	425568	399.5	0
378	425568	399.6	0
378	425568	399.7	0
378	425568	399.8	0
378	425568	399.9	0
378	425568	400	0
378	425568	400.1	0
378	425568	400.2	0
378	425568	400.3	0
378	425568	400.4	0
378	425568	400.5	0
378	425568	400.6	0
378	425568	400.7	0
378	425568	400.8	0
378	425568	400.9	0
378	425568	401	0
378	425568	401.1	0
378	425568	401.2	0
378	425568	401.3	0
378	425568	401.4	0
378	425568	401.5	0
378	425568	401.6	0
378	425568	401.7	0
378	425568	401.8	0
378	425568	401.9	0
378	425568	402	0
378	425568	402.1	0
378	425568	402.2	0
378	425568	402.3	0
378	425568	402.4	0
378	425568	402.5	0
378	425568	402.6	0
378	425568	402.7	0
378	425568	402.8	0
378	425568	402.9	0
378	425568	403	0
378	425568	403.1	0
378	425568	403.2	0
378	425568	403.3	0
378	425568	403.4	0
378	425568	403.5	0
378	425568	403.6	0
378	425568	403.7	0
378	425568	403.8	0
378	425568	403.9	0
378	425568	404	0
378	425568	404.1	0
378	425568	404.2	0
378	425568	404.3	0
378	425568	404.4	0
378	425568	404.5	0
378	425568	404.6	0
378	425568	404.7	0
378	425568	404.8	0
378	425568	404.9	0
378	425568	405	0
378	425568	405.1	0
378	425568	405.2	0
378	425568	405.3	0
378	425568	405.4	0
378	425568	405.5	0
378	425568	405.6	0
378	425568	405.7	0
378	425568	405.8	0
378	425568	405.9	0
378	425568	406	0
378	425568	406.1	0
378	425568	406.2	0
378	425568	406.3	0
378	425568	406.4	0
378	425568	406.5	0
378	425568	406.6	0
378	425568	406.7	0
378	425568	406.8	0
378	425568	406.9	0
378	425568	407	0
378	425568	407.1	0
378	425568	407.2	0
378	425568	407.3	0
378	425568	407.4	0
378	425568	407.5	0
378	425568	407.6	0
378	425568	407.7	0
378	425568	407.8	0
378	425568	407.9	0
378	425568	408	0
378	425568	408.1	0
378	425568	408.2	0
378	425568	408.3	0
378	425568	408.4	0
378	425568	408.5	0
378	425568	408.6	0
378	425568	408.7	0
378	425568	408.8	0
378	425568	408.9	0
378	425568	409	0
378	425568	409.1	0
378	425568	409.2	0
378	425568	409.3	0
378	425568	409.4	0
378	425568	409.5	0
378	425568	409.6	0
378	425568	409.7	0
378	425568	409.8	0
378	425568	409.9	0
378	425568	410	0
378	425568	410.1	0
378	425568	410.2	0
378	425568	410.3	0
378	425568	410.4	0
378	425568	410.5	0
378	425568	410.6	0
378	425568	410.7	0
378	425568	410.8	0
378	425568	410.9	0
378	425568	411	0
378	425568	411.1	0
378	425568	411.2	0
378	425568	411.3	0
378	425568	411.4	0
378	425568	411.5	0
378	425568	411.6	0
378	425568	411.7	0
378	425568	411.8	0
378	425568	411.9	0
378	425568	412	0
378	425568	412.1	0
378	425568	412.2	0
378	425568	412.3	0
378	425568	412.4	0
378	425568	412.5	0
378	425568	412.6	0
378	425568	412.7	0
378	425568	412.8	0
378	425568	412.9	0
378	425568	413	0
378	425568	413.1	0
378	425568	413.2	0
378	425568	413.3	0
378	425568	413.4	0
378	425568	413.5	0
378	425568	413.6	0
378	425568	413.7	0
378	425568	413.8	0
378	425568	413.9	0
378	425568	414	0
378	425568	414.1	0
378	425568	414.2	0
378	425568	414.3	0
378	425568	414.4	0
378	425568	414.5	0
378	425568	414.6	0
378	425568	414.7	0
378	425568	414.8	0
378	425568	414.9	0
378	425568	415	0
378	425568	415.1	0
378	425568	415.2	0
378	425568	415.3	0
378	425568	415.4	0
378	425568	415.5	0
378	425568	415.6	0
378	425568	415.7	0
378	425568	415.8	0
378	425568	415.9	0
378	425568	416	0
378	425568	416.1	0
378	425568	416.2	0
378	425568	416.3	0
378	425568	416.4	0
378	425568	416.5	0
378	425568	416.6	0
378	425568	416.7	0
378	425568	416.8	0
378	425568	416.9	0
378	425568	417	0
378	425568	417.1	0
378	425568	417.2	0
378	425568	417.3	0
378	425568	417.4	0
378	425568	417.5	0
378	425568	417.6	0
378	425568	417.7	0
378	425568	417.8	0
378	425568	417.9	0
378	425568	418	0
378	425568	418.1	0
378	425568	418.2	0
378	425568	418.3	0
378	425568	418.4	0
378	425568	418.5	0
378	425568	418.6	0
378	425568	418.7	0
378	425568	418.8	0
378	425568	418.9	0
378	425568	419	0
378	425568	419.1	0
378	425568	419.2	0
378	425568	419.3	0
378	425568	419.4	0
378	425568	419.5	0
378	425568	419.6	0
378	425568	419.7	0
378	425568	419.8	0
378	425568	419.9	0
378	425568	420	0
378	425568	420.1	0
378	425568	420.2	0
378	425568	420.3	0
378	425568	420.4	0
378	425568	420.5	0
378	425568	420.6	0
378	425568	420.7	0
378	425568	420.8	0
378	425568	420.9	0
378	425568	421	0
378	425568	421.1	0
378	425568	421.2	0
378	425568	421.3	0
378	425568	421.4	0
378	425568	421.5	0
378	425568	421.6	0
378	425568	421.7	0
378	425568	421.8	0
378	425568	421.9	0
378	425568	422	0
378	425568	422.1	0
378	425568	422.2	0
378	425568	422.3	0
378	425568	422.4	0
378	425568	422.5	0
378	425568	422.6	0
378	425568	422.7	0
378	425568	422.8	0
378	425568	422.9	0
378	425568	423	0
378	425568	423.1	0
378	425568	423.2	0
378	425568	423.3	0
378	425568	423.4	0
378	425568	423.5	0
378	425568	423.6	0
378	425568	423.7	0
378	425568	423.8	0
378	425568	423.9	0
378	425568	424	0
378	425568	424.1	0
378	425568	424.2	0
378	425568	424.3	0
378	425568	424.4	0
378	425568	424.5	0
378	425568	424.6	0
378	425568	424.7	0
378	425568	424.8	0
378	425568	424.9	0
378	425568	425	0
378	425568	425.1	0
378	425568	425.2	0
378	425568	425.3	0
378	425568	425.4	0
378	425568	425.5	0
378	425568	425.6	0
378	425568	425.7	0
378	425568	425.8	0
378	425568	425.9	0
378	425568	426	0
378	425568	426.1	0
378	425568	426.2	0
378	425568	426.3	0
378	425568	426.4	0
378	425568	426.5	0
378	425568	426.6	0
378	425568	426.7	0
378	425568	426.8	0
378	425568	426.9	0
378	425568	427	0
378	425568	427.1	0
378	425568	427.2	0
378	425568	427.3	0
378	425568	427.4	0
378	425568	427.5	0
378	425568	427.6	0
378	425568	427.7	0
378	425568	427.8	0
378	425568	427.9	0
378	425568	428	0
378	425568	428.1	0
378	425568	428.2	0
378	425568	428.3	0
378	425568	428.4	0
378	425568	428.5	0
378	425568	428.6	0
378	425568	428.7	0
378	425568	428.8	0
378	425568	428.9	0
378	425568	429	0
378	425568	429.1	0
378	425568	429.2	0
378	425568	429.3	0
378	425568	429.4	0
378	425568	429.5	0
378	425568	429.6	0
378	425568	429.7	0
378	425568	429.8	0
378	425568	429.9	0
378	425568	430	0
378	425568	430.1	0
378	425568	430.2	0
378	425568	430.3	0
378	425568	430.4	0
378	425568	430.5	0
378	425568	430.6	0
378	425568	430.7	0
378	425568	430.8	0
378	425568	430.9	0
378	425568	431	0
378	425568	431.1	0
378	425568	431.2	0
378	425568	431.3	0
378	425568	431.4	0
378	425568	431.5	0
378	425568	431.6	0
378	425568	431.7	0
378	425568	431.8	0
378	425568	431.9	0
378	425568	432	0
378	425568	432.1	0
378	425568	432.2	0
378	425568	432.3	0
378	425568	432.4	0
378	425568	432.5	0
378	425568	432.6	0
378	425568	432.7	0
378	425568	432.8	0
378	425568	432.9	0
378	425568	433	0
378	425568	433.1	0
378	425568	433.2	0
378	425568	433.3	0
378	425568	433.4	0
378	425568	433.5	0
378	425568	433.6	0
378	425568	433.7	0
378	425568	433.8	0
378	425568	433.9	0
378	425568	434	0
378	425568	434.1	0
378	425568	434.2	0
378	425568	434.3	0
378	425568	434.4	0
378	425568	434.5	0
378	425568	434.6	0
378	425568	434.7	0
378	425568	434.8	0
378	425568	434.9	0
378	425568	435	0
378	425568	435.1	0
378	425568	435.2	0
378	425568	435.3	0
378	425568	435.4	0
378	425568	435.5	0
378	425568	435.6	0
378	425568	435.7	0
378	425568	435.8	0
378	425568	435.9	0
378	425568	436	0
378	425568	436.1	0
378	425568	436.2	0
378	425568	436.3	0
378	425568	436.4	0
378	425568	436.5	0
378	425568	436.6	0
378	425568	436.7	0
378	425568	436.8	0
378	425568	436.9	0
378	425568	437	0
378	425568	437.1	0
378	425568	437.2	0
378	425568	437.3	0
378	425568	437.4	0
378	425568	437.5	0
378	425568	437.6	0
378	425568	437.7	0
378	425568	437.8	0
378	425568	437.9	0
378	425568	438	0
378	425568	438.1	0
378	425568	438.2	0
378	425568	438.3	0
378	425568	438.4	0
378	425568	438.5	0
378	425568	438.6	0
378	425568	438.7	0
378	425568	438.8	0
378	425568	438.9	0
378	425568	439	0
378	425568	439.1	0
378	425568	439.2	0
378	425568	439.3	0
378	425568	439.4	0
378	425568	439.5	0
378	425568	439.6	0
378	425568	439.7	0
378	425568	439.8	0
378	425568	439.9	0
378	425568	440	0
378	425568	440.1	0
378	425568	440.2	0
378	425568	440.3	0
378	425568	440.4	0
378	425568	440.5	0
378	425568	440.6	0
378	425568	440.7	0
378	425568	440.8	0
378	425568	440.9	0
378	425568	441	0
378	425568	441.1	0
378	425568	441.2	0
378	425568	441.3	0
378	425568	441.4	0
378	425568	441.5	0
378	425568	441.6	0
378	425568	441.7	0
378	425568	441.8	0
378	425568	441.9	0
378	425568	442	0
378	425568	442.1	0
378	425568	442.2	0
378	425568	442.3	0
378	425568	442.4	0
378	425568	442.5	0
378	425568	442.6	0
378	425568	442.7	0
378	425568	442.8	0
378	425568	442.9	0
378	425568	443	0
378	425568	443.1	0
378	425568	443.2	0
378	425568	443.3	0
378	425568	443.4	0
378	425568	443.5	0
378	425568	443.6	0
378	425568	443.7	0
378	425568	443.8	0
378	425568	443.9	0
378	425568	444	0
378	425568	444.1	0
378	425568	444.2	0
378	425568	444.3	0
378	425568	444.4	0
378	425568	444.5	0
378	425568	444.6	0
378	425568	444.7	0
378	425568	444.8	0
378	425568	444.9	0
378	425568	445	0
378	425568	445.1	0
378	425568	445.2	0
378	425568	445.3	0
378	425568	445.4	0
378	425568	445.5	0
378	425568	445.6	0
378	425568	445.7	0
378	425568	445.8	0
378	425568	445.9	0
378	425568	446	0
378	425568	446.1	0
378	425568	446.2	0
378	425568	446.3	0
378	425568	446.4	0
378	425568	446.5	0
378	425568	446.6	0
378	425568	446.7	0
378	425568	446.8	0
378	425568	446.9	0
378	425568	447	0
378	425568	447.1	0
378	425568	447.2	0
378	425568	447.3	0
378	425568	447.4	0
378	425568	447.5	0
378	425568	447.6	0
378	425568	447.7	0
378	425568	447.8	0
378	425568	447.9	0
378	425568	448	0
378	425568	448.1	0
378	425568	448.2	0
378	425568	448.3	0
378	425568	448.4	0
378	425568	448.5	0
378	425568	448.6	0
378	425568	448.7	0
378	425568	448.8	0
378	425568	448.9	0
378	425568	449	0
378	425568	449.1	0
378	425568	449.2	0
378	425568	449.3	0
378	425568	449.4	0
378	425568	449.5	0
378	425568	449.6	0
378	425568	449.7	0
378	425568	449.8	0
378	425568	449.9	0
378	425568	450	0
378	425568	450.1	0
378	425568	450.2	0
378	425568	450.3	0
378	425568	450.4	0
378	425568	450.5	0
378	425568	450.6	0
378	425568	450.7	0
378	425568	450.8	0
378	425568	450.9	0
378	425568	451	0
378	425568	451.1	0
378	425568	451.2	0
378	425568	451.3	0
378	425568	451.4	0
378	425568	451.5	0
378	425568	451.6	0
378	425568	451.7	0
378	425568	451.8	0
378	425568	451.9	0
378	425568	452	0
378	425568	452.1	0
378	425568	452.2	0
378	425568	452.3	0
378	425568	452.4	0
378	425568	452.5	0
378	425568	452.6	0
378	425568	452.7	0
378	425568	452.8	0
378	425568	452.9	0
378	425568	453	0
378	425568	453.1	0
378	425568	453.2	0
378	425568	453.3	0
378	425568	453.4	0
378	425568	453.5	0
378	425568	453.6	0
378	425568	453.7	0
378	425568	453.8	0
378	425568	453.9	0
378	425568	454	0
378	425568	454.1	0
378	425568	454.2	0
378	425568	454.3	0
378	425568	454.4	0
378	425568	454.5	0
378	425568	454.6	0
378	425568	454.7	0
378	425568	454.8	0
378	425568	454.9	0
378	425568	455	0
378	425568	455.1	0
378	425568	455.2	0
378	425568	455.3	0
378	425568	455.4	0
378	425568	455.5	0
378	425568	455.6	0
378	425568	455.7	0
378	425568	455.8	0
378	425568	455.9	0
378	425568	456	0
378	425568	456.1	0
378	425568	456.2	0
378	425568	456.3	0
378	425568	456.4	0
378	425568	456.5	0
378	425568	456.6	0
378	425568	456.7	0
378	425568	456.8	0
378	425568	456.9	0
378	425568	457	0
378	425568	457.1	0
378	425568	457.2	0
378	425568	457.3	0
378	425568	457.4	0
378	425568	457.5	0
378	425568	457.6	0
378	425568	457.7	0
378	425568	457.8	0
378	425568	457.9	0
378	425568	458	0
378	425568	458.1	0
378	425568	458.2	0
378	425568	458.3	0
378	425568	458.4	0
378	425568	458.5	0
378	425568	458.6	0
378	425568	458.7	0
378	425568	458.8	0
378	425568	458.9	0
378	425568	459	0
378	425568	459.1	0
378	425568	459.2	0
378	425568	459.3	0
378	425568	459.4	0
378	425568	459.5	0
378	425568	459.6	0
378	425568	459.7	0
378	425568	459.8	0
378	425568	459.9	0
378	425568	460	0
378	425568	460.1	0
378	425568	460.2	0
378	425568	460.3	0
378	425568	460.4	0
378	425568	460.5	0
378	425568	460.6	0
378	425568	460.7	0
378	425568	460.8	0
378	425568	460.9	0
378	425568	461	0
378	425568	461.1	0
378	425568	461.2	0
378	425568	461.3	0
378	425568	461.4	0
378	425568	461.5	0
378	425568	461.6	0
378	425568	461.7	0
378	425568	461.8	0
378	425568	461.9	0
378	425568	462	0
378	425568	462.1	0
378	425568	462.2	0
378	425568	462.3	0
378	425568	462.4	0
378	425568	462.5	0
378	425568	462.6	0
378	425568	462.7	0
378	425568	462.8	0
378	425568	462.9	0
378	425568	463	0
378	425568	463.1	0
378	425568	463.2	0
378	425568	463.3	0
378	425568	463.4	0
378	425568	463.5	0
378	425568	463.6	0
378	425568	463.7	0
378	425568	463.8	0
378	425568	463.9	0
378	425568	464	0
378	425568	464.1	0
378	425568	464.2	0
378	425568	464.3	0
378	425568	464.4	0
378	425568	464.5	0
378	425568	464.6	0
378	425568	464.7	0
378	425568	464.8	0
378	425568	464.9	0
378	425568	465	0
378	425568	465.1	0
378	425568	465.2	0
378	425568	465.3	0
378	425568	465.4	0
378	425568	465.5	0
378	425568	465.6	0
378	425568	465.7	0
378	425568	465.8	0
378	425568	465.9	0
378	425568	466	0
378	425568	466.1	0
378	425568	466.2	0
378	425568	466.3	0
378	425568	466.4	0
378	425568	466.5	0
378	425568	466.6	0
378	425568	466.7	0
378	425568	466.8	0
378	425568	466.9	0
378	425568	467	0
378	425568	467.1	0
378	425568	467.2	0
378	425568	467.3	0
378	425568	467.4	0
378	425568	467.5	0
378	425568	467.6	0
378	425568	467.7	0
378	425568	467.8	0
378	425568	467.9	0
378	425568	468	0
378	425568	468.1	0
378	425568	468.2	0
378	425568	468.3	0
378	425568	468.4	0
378	425568	468.5	0
378	425568	468.6	0
378	425568	468.7	0
378	425568	468.8	0
378	425568	468.9	0
378	425568	469	0
378	425568	469.1	0
378	425568	469.2	0
378	425568	469.3	0
378	425568	469.4	0
378	425568	469.5	0
378	425568	469.6	0
378	425568	469.7	0
378	425568	469.8	0
378	425568	469.9	0
378	425568	470	0
378	425568	470.1	0
378	425568	470.2	0
378	425568	470.3	0
378	425568	470.4	0
378	425568	470.5	0
378	425568	470.6	0
378	425568	470.7	0
378	425568	470.8	0
378	425568	470.9	0
378	425568	471	0
378	425568	471.1	0
378	425568	471.2	0
378	425568	471.3	0
378	425568	471.4	0
378	425568	471.5	0
378	425568	471.6	0
378	425568	471.7	0
378	425568	471.8	0
378	425568	471.9	0
378	425568	472	0
378	425568	472.1	0
378	425568	472.2	0
378	425568	472.3	0
378	425568	472.4	0
378	425568	472.5	0
378	425568	472.6	0
378	425568	472.7	0
378	425568	472.8	0
378	425568	472.9	0
378	425568	473	0
378	425568	473.1	0
378	425568	473.2	0
378	425568	473.3	0
378	425568	473.4	0
378	425568	473.5	0
378	425568	473.6	0
378	425568	473.7	0
378	425568	473.8	0
378	425568	473.9	0
378	425568	474	0
378	425568	474.1	0
378	425568	474.2	0
378	425568	474.3	0
378	425568	474.4	0
378	425568	474.5	0
378	425568	474.6	0
378	425568	474.7	0
378	425568	474.8	0
378	425568	474.9	0
378	425568	475	0
378	425568	475.1	0
378	425568	475.2	0
378	425568	475.3	0
378	425568	475.4	0
378	425568	475.5	0
378	425568	475.6	0
378	425568	475.7	0
378	425568	475.8	0
378	425568	475.9	0
378	425568	476	0
378	425568	476.1	0
378	425568	476.2	0
378	425568	476.3	0
378	425568	476.4	0
378	425568	476.5	0
378	425568	476.6	0
378	425568	476.7	0
378	425568	476.8	0
378	425568	476.9	0
378	425568	477	0
378	425568	477.1	0
378	425568	477.2	0
378	425568	477.3	0
378	425568	477.4	0
378	425568	477.5	0
378	425568	477.6	0
378	425568	477.7	0
378	425568	477.8	0
378	425568	477.9	0
378	425568	478	0
378	425568	478.1	0
378	425568	478.2	0
378	425568	478.3	0
378	425568	478.4	0
378	425568	478.5	0
378	425568	478.6	0
378	425568	478.7	0
378	425568	478.8	0
378	425568	478.9	0
378	425568	479	0
378	425568	479.1	0
378	425568	479.2	0
378	425568	479.3	0
378	425568	479.4	0
378	425568	479.5	0
378	425568	479.6	0
378	425568	479.7	0
378	425568	479.8	0
378	425568	479.9	0
378	425568	480	0
378	425568	480.1	0
378	425568	480.2	0
378	425568	480.3	0
378	425568	480.4	0
378	425568	480.5	0
378	425568	480.6	0
378	425568	480.7	0
378	425568	480.8	0
378	425568	480.9	0
378	425568	481	0
378	425568	481.1	0
378	425568	481.2	0
378	425568	481.3	0
378	425568	481.4	0
378	425568	481.5	0
378	425568	481.6	0
378	425568	481.7	0
378	425568	481.8	0
378	425568	481.9	0
378	425568	482	0
378	425568	482.1	0
378	425568	482.2	0
378	425568	482.3	0
378	425568	482.4	0
378	425568	482.5	0
378	425568	482.6	0
378	425568	482.7	0
378	425568	482.8	0
378	425568	482.9	0
378	425568	483	0
378	425568	483.1	0
378	425568	483.2	0
378	425568	483.3	0
378	425568	483.4	0
378	425568	483.5	0
378	425568	483.6	0
378	425568	483.7	0
378	425568	483.8	0
378	425568	483.9	0
378	425568	484	0
378	425568	484.1	0
378	425568	484.2	0
378	425568	484.3	0
378	425568	484.4	0
378	425568	484.5	0
378	425568	484.6	0
378	425568	484.7	0
378	425568	484.8	0
378	425568	484.9	0
378	425568	485	0
378	425568	485.1	0
378	425568	485.2	0
378	425568	485.3	0
378	425568	485.4	0
378	425568	485.5	0
378	425568	485.6	0
378	425568	485.7	0
378	425568	485.8	0
378	425568	485.9	0
378	425568	486	0
378	425568	486.1	0
378	425568	486.2	0
378	425568	486.3	0
378	425568	486.4	0
378	425568	486.5	0
378	425568	486.6	0
378	425568	486.7	0
378	425568	486.8	0
378	425568	486.9	0
378	425568	487	0
378	425568	487.1	0
378	425568	487.2	0
378	425568	487.3	0
378	425568	487.4	0
378	425568	487.5	0
378	425568	487.6	0
378	425568	487.7	0
378	425568	487.8	0
378	425568	487.9	0
378	425568	488	0
378	425568	488.1	0
378	425568	488.2	0
378	425568	488.3	0
378	425568	488.4	0
378	425568	488.5	0
378	425568	488.6	0
378	425568	488.7	0
378	425568	488.8	0
378	425568	488.9	0
378	425568	489	0
378	425568	489.1	0
378	425568	489.2	0
378	425568	489.3	0
378	425568	489.4	0
378	425568	489.5	0
378	425568	489.6	0
378	425568	489.7	0
378	425568	489.8	0
378	425568	489.9	0
378	425568	490	0
378	425568	490.1	0
378	425568	490.2	0
378	425568	490.3	0
378	425568	490.4	0
378	425568	490.5	0
378	425568	490.6	0
378	425568	490.7	0
378	425568	490.8	0
378	425568	490.9	0
378	425568	491	0
378	425568	491.1	0
378	425568	491.2	0
378	425568	491.3	0
378	425568	491.4	0
378	425568	491.5	0
378	425568	491.6	0
378	425568	491.7	0
378	425568	491.8	0
378	425568	491.9	0
378	425568	492	0
378	425568	492.1	0
378	425568	492.2	0
378	425568	492.3	0
378	425568	492.4	0
378	425568	492.5	0
378	425568	492.6	0
378	425568	492.7	0
378	425568	492.8	0
378	425568	492.9	0
378	425568	493	0
378	425568	493.1	0
378	425568	493.2	0
378	425568	493.3	0
378	425568	493.4	0
378	425568	493.5	0
378	425568	493.6	0
378	425568	493.7	0
378	425568	493.8	0
378	425568	493.9	0
378	425568	494	0
378	425568	494.1	0
378	425568	494.2	0
378	425568	494.3	0
378	425568	494.4	0
378	425568	494.5	0
378	425568	494.6	0
378	425568	494.7	0
378	425568	494.8	0
378	425568	494.9	0
378	425568	495	0
378	425568	495.1	0
378	425568	495.2	0
378	425568	495.3	0
378	425568	495.4	0
378	425568	495.5	0
378	425568	495.6	0
378	425568	495.7	0
378	425568	495.8	0
378	425568	495.9	0
378	425568	496	0
378	425568	496.1	0
378	425568	496.2	0
378	425568	496.3	0
378	425568	496.4	0
378	425568	496.5	0
378	425568	496.6	0
378	425568	496.7	0
378	425568	496.8	0
378	425568	496.9	0
378	425568	497	0
378	425568	497.1	0
378	425568	497.2	0
378	425568	497.3	0
378	425568	497.4	0
378	425568	497.5	0
378	425568	497.6	0
378	425568	497.7	0
378	425568	497.8	0
378	425568	497.9	0
378	425568	498	0
378	425568	498.1	0
378	425568	498.2	0
378	425568	498.3	0
378	425568	498.4	0
378	425568	498.5	0
378	425568	498.6	0
378	425568	498.7	0
378	425568	498.8	0
378	425568	498.9	0
378	425568	499	0
378	425568	499.1	0
378	425568	499.2	0
378	425568	499.3	0
378	425568	499.4	0
378	425568	499.5	0
378	425568	499.6	0
378	425568	499.7	0
378	425568	499.8	0
378	425568	499.9	0
378	425568	500	0

