file 2779460 1654618056                                         
version 2
run SybilAttackNormale-0-20220607-18:07:19-12770
attr configname SybilAttackNormale
attr datetime 20220607-18:07:19
attr experiment SybilAttackNormale
attr inifile omnetpp.ini
attr iterationvars ""
attr iterationvarsf ""
attr measurement ""
attr network FanetSybilNormale
attr processid 12770
attr repetition 0
attr replication #0
attr resultdir results
attr runnumber 0
attr seedset 0
param *.attacker[*].mobility.typename "\"MassMobility\""
param *.attacker[*].mobility.changeInterval 1s
param *.attacker[*].mobility.initialMovementHeading "uniform(0deg, 360deg)"
param *.attacker[*].mobility.initialMovementElevation "uniform(-90deg, 90deg)"
param *.attacker[*].mobility.angleDelta uniform(-10deg,10deg)
param *.attacker[*].mobility.rotationAxisAngle uniform(-10deg,10deg)
param *.attacker[*].mobility.speed uniform(10mps,20mps)
param *.attacker[*].mobility.faceForward false
param *.attacker*.wlan[0].typename "\"AckingWirelessInterface\""
param *.attacker*.wlan[0].radio.transmitter.communicationRange 400m
param *.attacker*.wlan[0].radio.displayCommunicationRange true
param *.host[0].numApps 1
param *.host[0].app[0].typename "\"UdpBasicApp\""
param *.host[0].app[0].startTime 15s
param *.host[0].app[0].destAddresses "\"host[20]\""
param *.host[0].app[0].destPort 5000
param *.host[0].app[0].messageLength 1000B
param *.host[0].app[0].sendInterval exponential(1s)
param *.host[0].app[0].packetName "\"UDPdata\""
param *.host[20].numApps 1
param *.host[20].app[0].typename "\"UdpSink\""
param *.host[20].app[0].localPort 5000
param **.wlan[*].bitrate 24Mbps
param *.configurator.addStaticRoutes false
param **.netmaskRoutes "\"\""
param **.arp.typename "\"GlobalArp\""
param *.host*.wlan[0].typename "\"AckingWirelessInterface\""
param *.host*.wlan[0].radio.transmitter.communicationRange 400m
param *.host*.wlan[0].radio.displayCommunicationRange true
param *.visualizer.osgVisualizer.typename "\"IntegratedOsgVisualizer\""
param *.visualizer.osgVisualizer.sceneVisualizer.clearColor "\"skyblue\""
param *.visualizer.osgVisualizer.sceneVisualizer.sceneImage "\"showcases/desert\""
param *.visualizer.osgVisualizer.sceneVisualizer.sceneImageSize 5000m
param *.visualizer.osgVisualizer.sceneVisualizer.axisLength 1000m
param *.visualizer.osgVisualizer.sceneVisualizer.sceneMinX -2000m
param *.visualizer.osgVisualizer.sceneVisualizer.sceneMinY -2000m
param *.visualizer.osgVisualizer.sceneVisualizer.sceneMinZ 0m
param *.visualizer.osgVisualizer.sceneVisualizer.sceneMaxX 3000m
param *.visualizer.osgVisualizer.sceneVisualizer.sceneMaxY 3000m
param *.visualizer.osgVisualizer.sceneVisualizer.sceneMaxZ 1000m
param *.visualizer.osgVisualizer.networkNodeVisualizer.displayModuleName false
param *.visualizer.*.mobilityVisualizer.displayMobility true
param *.visualizer.*.mobilityVisualizer.displayPositions true
param *.visualizer.*.mobilityVisualizer.displayOrientations true
param *.visualizer.*.mobilityVisualizer.displayVelocities true
param *.visualizer.*.mobilityVisualizer.displayMovementTrails true
param *.visualizer.*.mobilityVisualizer.animationSpeed 1
param *.visualizer.*.packetDropVisualizer.displayPacketDrops false
param *.visualizer.*.packetDropVisualizer.labelFormat "\"%n/reason: %r\""
param *.visualizer.*.packetDropVisualizer.fadeOutTime 10s
param **.constraintAreaMinX 0m
param **.constraintAreaMinY 0m
param **.constraintAreaMinZ 40m
param **.constraintAreaMaxX 2500m
param **.constraintAreaMaxY 2000m
param **.constraintAreaMaxZ 200m
param *.visualizer.*.mediumVisualizer.signalPropagationAnimationSpeed 500/3e8
param *.visualizer.*.mediumVisualizer.signalTransmissionAnimationSpeed 50000/3e8
param *.visualizer.*.mediumVisualizer.displaySignals false
param *.visualizer.*.mediumVisualizer.displayTransmissions false
param *.visualizer.*.mediumVisualizer.displayReceptions false
param *.visualizer.*.mediumVisualizer.transmissionPlacementPriority 10
param *.visualizer.*.mediumVisualizer.receptionPlacementPriority 10
param *.visualizer.*.mediumVisualizer.displaySignals false
param *.visualizer.*.mediumVisualizer.signalFadingDistance 50m
param *.visualizer.*.mediumVisualizer.signalRingSize 50m
param *.visualizer.osgVisualizer.mediumVisualizer.signalShape "\"both\""
param *.host[*].osgModel "\"3d/drone.ive.100.scale.0,0,90.rot\""
param *.host[*].mobility.typename "\"MassMobility\""
param *.host[*].mobility.changeInterval 1s
param *.host[*].mobility.initialMovementHeading "uniform(0deg, 360deg)"
param *.host[*].mobility.initialMovementElevation "uniform(-90deg, 90deg)"
param *.host[*].mobility.angleDelta uniform(-10deg,10deg)
param *.host[*].mobility.rotationAxisAngle uniform(-10deg,10deg)
param *.host[*].mobility.speed uniform(10mps,20mps)
param *.host[*].mobility.faceForward false

vector 0 FanetSybilNormale.host[0].wlan[0].radio radioMode:vector ETV
attr interpolationmode sample-hold
attr source radioModeChanged
attr title "Radio mode, vector"
vector 1 FanetSybilNormale.host[1].wlan[0].radio radioMode:vector ETV
attr interpolationmode sample-hold
attr source radioModeChanged
attr title "Radio mode, vector"
vector 2 FanetSybilNormale.host[2].wlan[0].radio radioMode:vector ETV
attr interpolationmode sample-hold
attr source radioModeChanged
attr title "Radio mode, vector"
vector 3 FanetSybilNormale.host[3].wlan[0].radio radioMode:vector ETV
attr interpolationmode sample-hold
attr source radioModeChanged
attr title "Radio mode, vector"
vector 4 FanetSybilNormale.host[4].wlan[0].radio radioMode:vector ETV
attr interpolationmode sample-hold
attr source radioModeChanged
attr title "Radio mode, vector"
vector 5 FanetSybilNormale.host[5].wlan[0].radio radioMode:vector ETV
attr interpolationmode sample-hold
attr source radioModeChanged
attr title "Radio mode, vector"
vector 6 FanetSybilNormale.host[6].wlan[0].radio radioMode:vector ETV
attr interpolationmode sample-hold
attr source radioModeChanged
attr title "Radio mode, vector"
vector 7 FanetSybilNormale.host[7].wlan[0].radio radioMode:vector ETV
attr interpolationmode sample-hold
attr source radioModeChanged
attr title "Radio mode, vector"
vector 8 FanetSybilNormale.host[8].wlan[0].radio radioMode:vector ETV
attr interpolationmode sample-hold
attr source radioModeChanged
attr title "Radio mode, vector"
vector 9 FanetSybilNormale.host[9].wlan[0].radio radioMode:vector ETV
attr interpolationmode sample-hold
attr source radioModeChanged
attr title "Radio mode, vector"
vector 10 FanetSybilNormale.host[10].wlan[0].radio radioMode:vector ETV
attr interpolationmode sample-hold
attr source radioModeChanged
attr title "Radio mode, vector"
vector 11 FanetSybilNormale.host[11].wlan[0].radio radioMode:vector ETV
attr interpolationmode sample-hold
attr source radioModeChanged
attr title "Radio mode, vector"
vector 12 FanetSybilNormale.host[12].wlan[0].radio radioMode:vector ETV
attr interpolationmode sample-hold
attr source radioModeChanged
attr title "Radio mode, vector"
vector 13 FanetSybilNormale.host[13].wlan[0].radio radioMode:vector ETV
attr interpolationmode sample-hold
attr source radioModeChanged
attr title "Radio mode, vector"
vector 14 FanetSybilNormale.host[14].wlan[0].radio radioMode:vector ETV
attr interpolationmode sample-hold
attr source radioModeChanged
attr title "Radio mode, vector"
vector 15 FanetSybilNormale.host[15].wlan[0].radio radioMode:vector ETV
attr interpolationmode sample-hold
attr source radioModeChanged
attr title "Radio mode, vector"
vector 16 FanetSybilNormale.host[16].wlan[0].radio radioMode:vector ETV
attr interpolationmode sample-hold
attr source radioModeChanged
attr title "Radio mode, vector"
vector 17 FanetSybilNormale.host[17].wlan[0].radio radioMode:vector ETV
attr interpolationmode sample-hold
attr source radioModeChanged
attr title "Radio mode, vector"
vector 18 FanetSybilNormale.host[18].wlan[0].radio radioMode:vector ETV
attr interpolationmode sample-hold
attr source radioModeChanged
attr title "Radio mode, vector"
vector 19 FanetSybilNormale.host[19].wlan[0].radio radioMode:vector ETV
attr interpolationmode sample-hold
attr source radioModeChanged
attr title "Radio mode, vector"
vector 20 FanetSybilNormale.host[20].wlan[0].radio radioMode:vector ETV
attr interpolationmode sample-hold
attr source radioModeChanged
attr title "Radio mode, vector"
vector 21 FanetSybilNormale.host[21].wlan[0].radio radioMode:vector ETV
attr interpolationmode sample-hold
attr source radioModeChanged
attr title "Radio mode, vector"
vector 22 FanetSybilNormale.host[22].wlan[0].radio radioMode:vector ETV
attr interpolationmode sample-hold
attr source radioModeChanged
attr title "Radio mode, vector"
vector 23 FanetSybilNormale.host[23].wlan[0].radio radioMode:vector ETV
attr interpolationmode sample-hold
attr source radioModeChanged
attr title "Radio mode, vector"
vector 24 FanetSybilNormale.host[24].wlan[0].radio radioMode:vector ETV
attr interpolationmode sample-hold
attr source radioModeChanged
attr title "Radio mode, vector"
vector 25 FanetSybilNormale.host[25].wlan[0].radio radioMode:vector ETV
attr interpolationmode sample-hold
attr source radioModeChanged
attr title "Radio mode, vector"
vector 26 FanetSybilNormale.host[26].wlan[0].radio radioMode:vector ETV
attr interpolationmode sample-hold
attr source radioModeChanged
attr title "Radio mode, vector"
vector 27 FanetSybilNormale.host[27].wlan[0].radio radioMode:vector ETV
attr interpolationmode sample-hold
attr source radioModeChanged
attr title "Radio mode, vector"
vector 28 FanetSybilNormale.host[28].wlan[0].radio radioMode:vector ETV
attr interpolationmode sample-hold
attr source radioModeChanged
attr title "Radio mode, vector"
vector 29 FanetSybilNormale.host[29].wlan[0].radio radioMode:vector ETV
attr interpolationmode sample-hold
attr source radioModeChanged
attr title "Radio mode, vector"
vector 30 FanetSybilNormale.attacker[0].wlan[0].radio radioMode:vector ETV
attr interpolationmode sample-hold
attr source radioModeChanged
attr title "Radio mode, vector"
vector 31 FanetSybilNormale.attacker[1].wlan[0].radio radioMode:vector ETV
attr interpolationmode sample-hold
attr source radioModeChanged
attr title "Radio mode, vector"
vector 32 FanetSybilNormale.attacker[2].wlan[0].radio radioMode:vector ETV
attr interpolationmode sample-hold
attr source radioModeChanged
attr title "Radio mode, vector"
vector 33 FanetSybilNormale.attacker[3].wlan[0].radio radioMode:vector ETV
attr interpolationmode sample-hold
attr source radioModeChanged
attr title "Radio mode, vector"
vector 34 FanetSybilNormale.attacker[4].wlan[0].radio radioMode:vector ETV
attr interpolationmode sample-hold
attr source radioModeChanged
attr title "Radio mode, vector"
vector 35 FanetSybilNormale.attacker[5].wlan[0].radio radioMode:vector ETV
attr interpolationmode sample-hold
attr source radioModeChanged
attr title "Radio mode, vector"
vector 36 FanetSybilNormale.attacker[6].wlan[0].radio radioMode:vector ETV
attr interpolationmode sample-hold
attr source radioModeChanged
attr title "Radio mode, vector"
vector 37 FanetSybilNormale.attacker[7].wlan[0].radio radioMode:vector ETV
attr interpolationmode sample-hold
attr source radioModeChanged
attr title "Radio mode, vector"
vector 38 FanetSybilNormale.attacker[8].wlan[0].radio radioMode:vector ETV
attr interpolationmode sample-hold
attr source radioModeChanged
attr title "Radio mode, vector"
vector 39 FanetSybilNormale.attacker[9].wlan[0].radio radioMode:vector ETV
attr interpolationmode sample-hold
attr source radioModeChanged
attr title "Radio mode, vector"
vector 40 FanetSybilNormale.attacker[10].wlan[0].radio radioMode:vector ETV
attr interpolationmode sample-hold
attr source radioModeChanged
attr title "Radio mode, vector"
vector 41 FanetSybilNormale.attacker[11].wlan[0].radio radioMode:vector ETV
attr interpolationmode sample-hold
attr source radioModeChanged
attr title "Radio mode, vector"
vector 42 FanetSybilNormale.attacker[12].wlan[0].radio radioMode:vector ETV
attr interpolationmode sample-hold
attr source radioModeChanged
attr title "Radio mode, vector"
vector 43 FanetSybilNormale.attacker[13].wlan[0].radio radioMode:vector ETV
attr interpolationmode sample-hold
attr source radioModeChanged
attr title "Radio mode, vector"
vector 44 FanetSybilNormale.attacker[14].wlan[0].radio radioMode:vector ETV
attr interpolationmode sample-hold
attr source radioModeChanged
attr title "Radio mode, vector"
vector 45 FanetSybilNormale.attacker[15].wlan[0].radio radioMode:vector ETV
attr interpolationmode sample-hold
attr source radioModeChanged
attr title "Radio mode, vector"
vector 46 FanetSybilNormale.attacker[16].wlan[0].radio radioMode:vector ETV
attr interpolationmode sample-hold
attr source radioModeChanged
attr title "Radio mode, vector"
vector 47 FanetSybilNormale.attacker[17].wlan[0].radio radioMode:vector ETV
attr interpolationmode sample-hold
attr source radioModeChanged
attr title "Radio mode, vector"
vector 48 FanetSybilNormale.attacker[18].wlan[0].radio radioMode:vector ETV
attr interpolationmode sample-hold
attr source radioModeChanged
attr title "Radio mode, vector"
vector 49 FanetSybilNormale.attacker[19].wlan[0].radio radioMode:vector ETV
attr interpolationmode sample-hold
attr source radioModeChanged
attr title "Radio mode, vector"
vector 50 FanetSybilNormale.host[0].wlan[0].radio receptionState:vector ETV
attr interpolationmode sample-hold
attr source receptionStateChanged
attr title "Radio reception state, vector"
vector 51 FanetSybilNormale.host[0].wlan[0].radio transmissionState:vector ETV
attr interpolationmode sample-hold
attr source transmissionStateChanged
attr title "Radio transmission state, vector"
vector 52 FanetSybilNormale.host[1].wlan[0].radio receptionState:vector ETV
attr interpolationmode sample-hold
attr source receptionStateChanged
attr title "Radio reception state, vector"
vector 53 FanetSybilNormale.host[1].wlan[0].radio transmissionState:vector ETV
attr interpolationmode sample-hold
attr source transmissionStateChanged
attr title "Radio transmission state, vector"
vector 54 FanetSybilNormale.host[2].wlan[0].radio receptionState:vector ETV
attr interpolationmode sample-hold
attr source receptionStateChanged
attr title "Radio reception state, vector"
vector 55 FanetSybilNormale.host[2].wlan[0].radio transmissionState:vector ETV
attr interpolationmode sample-hold
attr source transmissionStateChanged
attr title "Radio transmission state, vector"
vector 56 FanetSybilNormale.host[3].wlan[0].radio receptionState:vector ETV
attr interpolationmode sample-hold
attr source receptionStateChanged
attr title "Radio reception state, vector"
vector 57 FanetSybilNormale.host[3].wlan[0].radio transmissionState:vector ETV
attr interpolationmode sample-hold
attr source transmissionStateChanged
attr title "Radio transmission state, vector"
vector 58 FanetSybilNormale.host[4].wlan[0].radio receptionState:vector ETV
attr interpolationmode sample-hold
attr source receptionStateChanged
attr title "Radio reception state, vector"
vector 59 FanetSybilNormale.host[4].wlan[0].radio transmissionState:vector ETV
attr interpolationmode sample-hold
attr source transmissionStateChanged
attr title "Radio transmission state, vector"
vector 60 FanetSybilNormale.host[5].wlan[0].radio receptionState:vector ETV
attr interpolationmode sample-hold
attr source receptionStateChanged
attr title "Radio reception state, vector"
vector 61 FanetSybilNormale.host[5].wlan[0].radio transmissionState:vector ETV
attr interpolationmode sample-hold
attr source transmissionStateChanged
attr title "Radio transmission state, vector"
vector 62 FanetSybilNormale.host[6].wlan[0].radio receptionState:vector ETV
attr interpolationmode sample-hold
attr source receptionStateChanged
attr title "Radio reception state, vector"
vector 63 FanetSybilNormale.host[6].wlan[0].radio transmissionState:vector ETV
attr interpolationmode sample-hold
attr source transmissionStateChanged
attr title "Radio transmission state, vector"
vector 64 FanetSybilNormale.host[7].wlan[0].radio receptionState:vector ETV
attr interpolationmode sample-hold
attr source receptionStateChanged
attr title "Radio reception state, vector"
vector 65 FanetSybilNormale.host[7].wlan[0].radio transmissionState:vector ETV
attr interpolationmode sample-hold
attr source transmissionStateChanged
attr title "Radio transmission state, vector"
vector 66 FanetSybilNormale.host[8].wlan[0].radio receptionState:vector ETV
attr interpolationmode sample-hold
attr source receptionStateChanged
attr title "Radio reception state, vector"
vector 67 FanetSybilNormale.host[8].wlan[0].radio transmissionState:vector ETV
attr interpolationmode sample-hold
attr source transmissionStateChanged
attr title "Radio transmission state, vector"
vector 68 FanetSybilNormale.host[9].wlan[0].radio receptionState:vector ETV
attr interpolationmode sample-hold
attr source receptionStateChanged
attr title "Radio reception state, vector"
vector 69 FanetSybilNormale.host[9].wlan[0].radio transmissionState:vector ETV
attr interpolationmode sample-hold
attr source transmissionStateChanged
attr title "Radio transmission state, vector"
vector 70 FanetSybilNormale.host[10].wlan[0].radio receptionState:vector ETV
attr interpolationmode sample-hold
attr source receptionStateChanged
attr title "Radio reception state, vector"
vector 71 FanetSybilNormale.host[10].wlan[0].radio transmissionState:vector ETV
attr interpolationmode sample-hold
attr source transmissionStateChanged
attr title "Radio transmission state, vector"
vector 72 FanetSybilNormale.host[11].wlan[0].radio receptionState:vector ETV
attr interpolationmode sample-hold
attr source receptionStateChanged
attr title "Radio reception state, vector"
vector 73 FanetSybilNormale.host[11].wlan[0].radio transmissionState:vector ETV
attr interpolationmode sample-hold
attr source transmissionStateChanged
attr title "Radio transmission state, vector"
vector 74 FanetSybilNormale.host[12].wlan[0].radio receptionState:vector ETV
attr interpolationmode sample-hold
attr source receptionStateChanged
attr title "Radio reception state, vector"
vector 75 FanetSybilNormale.host[12].wlan[0].radio transmissionState:vector ETV
attr interpolationmode sample-hold
attr source transmissionStateChanged
attr title "Radio transmission state, vector"
vector 76 FanetSybilNormale.host[13].wlan[0].radio receptionState:vector ETV
attr interpolationmode sample-hold
attr source receptionStateChanged
attr title "Radio reception state, vector"
vector 77 FanetSybilNormale.host[13].wlan[0].radio transmissionState:vector ETV
attr interpolationmode sample-hold
attr source transmissionStateChanged
attr title "Radio transmission state, vector"
vector 78 FanetSybilNormale.host[14].wlan[0].radio receptionState:vector ETV
attr interpolationmode sample-hold
attr source receptionStateChanged
attr title "Radio reception state, vector"
vector 79 FanetSybilNormale.host[14].wlan[0].radio transmissionState:vector ETV
attr interpolationmode sample-hold
attr source transmissionStateChanged
attr title "Radio transmission state, vector"
vector 80 FanetSybilNormale.host[15].wlan[0].radio receptionState:vector ETV
attr interpolationmode sample-hold
attr source receptionStateChanged
attr title "Radio reception state, vector"
vector 81 FanetSybilNormale.host[15].wlan[0].radio transmissionState:vector ETV
attr interpolationmode sample-hold
attr source transmissionStateChanged
attr title "Radio transmission state, vector"
vector 82 FanetSybilNormale.host[16].wlan[0].radio receptionState:vector ETV
attr interpolationmode sample-hold
attr source receptionStateChanged
attr title "Radio reception state, vector"
vector 83 FanetSybilNormale.host[16].wlan[0].radio transmissionState:vector ETV
attr interpolationmode sample-hold
attr source transmissionStateChanged
attr title "Radio transmission state, vector"
vector 84 FanetSybilNormale.host[17].wlan[0].radio receptionState:vector ETV
attr interpolationmode sample-hold
attr source receptionStateChanged
attr title "Radio reception state, vector"
vector 85 FanetSybilNormale.host[17].wlan[0].radio transmissionState:vector ETV
attr interpolationmode sample-hold
attr source transmissionStateChanged
attr title "Radio transmission state, vector"
vector 86 FanetSybilNormale.host[18].wlan[0].radio receptionState:vector ETV
attr interpolationmode sample-hold
attr source receptionStateChanged
attr title "Radio reception state, vector"
vector 87 FanetSybilNormale.host[18].wlan[0].radio transmissionState:vector ETV
attr interpolationmode sample-hold
attr source transmissionStateChanged
attr title "Radio transmission state, vector"
vector 88 FanetSybilNormale.host[19].wlan[0].radio receptionState:vector ETV
attr interpolationmode sample-hold
attr source receptionStateChanged
attr title "Radio reception state, vector"
vector 89 FanetSybilNormale.host[19].wlan[0].radio transmissionState:vector ETV
attr interpolationmode sample-hold
attr source transmissionStateChanged
attr title "Radio transmission state, vector"
vector 90 FanetSybilNormale.host[20].wlan[0].radio receptionState:vector ETV
attr interpolationmode sample-hold
attr source receptionStateChanged
attr title "Radio reception state, vector"
vector 91 FanetSybilNormale.host[20].wlan[0].radio transmissionState:vector ETV
attr interpolationmode sample-hold
attr source transmissionStateChanged
attr title "Radio transmission state, vector"
vector 92 FanetSybilNormale.host[21].wlan[0].radio receptionState:vector ETV
attr interpolationmode sample-hold
attr source receptionStateChanged
attr title "Radio reception state, vector"
vector 93 FanetSybilNormale.host[21].wlan[0].radio transmissionState:vector ETV
attr interpolationmode sample-hold
attr source transmissionStateChanged
attr title "Radio transmission state, vector"
vector 94 FanetSybilNormale.host[22].wlan[0].radio receptionState:vector ETV
attr interpolationmode sample-hold
attr source receptionStateChanged
attr title "Radio reception state, vector"
vector 95 FanetSybilNormale.host[22].wlan[0].radio transmissionState:vector ETV
attr interpolationmode sample-hold
attr source transmissionStateChanged
attr title "Radio transmission state, vector"
vector 96 FanetSybilNormale.host[23].wlan[0].radio receptionState:vector ETV
attr interpolationmode sample-hold
attr source receptionStateChanged
attr title "Radio reception state, vector"
vector 97 FanetSybilNormale.host[23].wlan[0].radio transmissionState:vector ETV
attr interpolationmode sample-hold
attr source transmissionStateChanged
attr title "Radio transmission state, vector"
vector 98 FanetSybilNormale.host[24].wlan[0].radio receptionState:vector ETV
attr interpolationmode sample-hold
attr source receptionStateChanged
attr title "Radio reception state, vector"
vector 99 FanetSybilNormale.host[24].wlan[0].radio transmissionState:vector ETV
attr interpolationmode sample-hold
attr source transmissionStateChanged
attr title "Radio transmission state, vector"
vector 100 FanetSybilNormale.host[25].wlan[0].radio receptionState:vector ETV
attr interpolationmode sample-hold
attr source receptionStateChanged
attr title "Radio reception state, vector"
vector 101 FanetSybilNormale.host[25].wlan[0].radio transmissionState:vector ETV
attr interpolationmode sample-hold
attr source transmissionStateChanged
attr title "Radio transmission state, vector"
vector 102 FanetSybilNormale.host[26].wlan[0].radio receptionState:vector ETV
attr interpolationmode sample-hold
attr source receptionStateChanged
attr title "Radio reception state, vector"
vector 103 FanetSybilNormale.host[26].wlan[0].radio transmissionState:vector ETV
attr interpolationmode sample-hold
attr source transmissionStateChanged
attr title "Radio transmission state, vector"
vector 104 FanetSybilNormale.host[27].wlan[0].radio receptionState:vector ETV
attr interpolationmode sample-hold
attr source receptionStateChanged
attr title "Radio reception state, vector"
vector 105 FanetSybilNormale.host[27].wlan[0].radio transmissionState:vector ETV
attr interpolationmode sample-hold
attr source transmissionStateChanged
attr title "Radio transmission state, vector"
vector 106 FanetSybilNormale.host[28].wlan[0].radio receptionState:vector ETV
attr interpolationmode sample-hold
attr source receptionStateChanged
attr title "Radio reception state, vector"
vector 107 FanetSybilNormale.host[28].wlan[0].radio transmissionState:vector ETV
attr interpolationmode sample-hold
attr source transmissionStateChanged
attr title "Radio transmission state, vector"
vector 108 FanetSybilNormale.host[29].wlan[0].radio receptionState:vector ETV
attr interpolationmode sample-hold
attr source receptionStateChanged
attr title "Radio reception state, vector"
vector 109 FanetSybilNormale.host[29].wlan[0].radio transmissionState:vector ETV
attr interpolationmode sample-hold
attr source transmissionStateChanged
attr title "Radio transmission state, vector"
vector 110 FanetSybilNormale.attacker[0].wlan[0].radio receptionState:vector ETV
attr interpolationmode sample-hold
attr source receptionStateChanged
attr title "Radio reception state, vector"
vector 111 FanetSybilNormale.attacker[0].wlan[0].radio transmissionState:vector ETV
attr interpolationmode sample-hold
attr source transmissionStateChanged
attr title "Radio transmission state, vector"
vector 112 FanetSybilNormale.attacker[1].wlan[0].radio receptionState:vector ETV
attr interpolationmode sample-hold
attr source receptionStateChanged
attr title "Radio reception state, vector"
vector 113 FanetSybilNormale.attacker[1].wlan[0].radio transmissionState:vector ETV
attr interpolationmode sample-hold
attr source transmissionStateChanged
attr title "Radio transmission state, vector"
vector 114 FanetSybilNormale.attacker[2].wlan[0].radio receptionState:vector ETV
attr interpolationmode sample-hold
attr source receptionStateChanged
attr title "Radio reception state, vector"
vector 115 FanetSybilNormale.attacker[2].wlan[0].radio transmissionState:vector ETV
attr interpolationmode sample-hold
attr source transmissionStateChanged
attr title "Radio transmission state, vector"
vector 116 FanetSybilNormale.attacker[3].wlan[0].radio receptionState:vector ETV
attr interpolationmode sample-hold
attr source receptionStateChanged
attr title "Radio reception state, vector"
vector 117 FanetSybilNormale.attacker[3].wlan[0].radio transmissionState:vector ETV
attr interpolationmode sample-hold
attr source transmissionStateChanged
attr title "Radio transmission state, vector"
vector 118 FanetSybilNormale.attacker[4].wlan[0].radio receptionState:vector ETV
attr interpolationmode sample-hold
attr source receptionStateChanged
attr title "Radio reception state, vector"
vector 119 FanetSybilNormale.attacker[4].wlan[0].radio transmissionState:vector ETV
attr interpolationmode sample-hold
attr source transmissionStateChanged
attr title "Radio transmission state, vector"
vector 120 FanetSybilNormale.attacker[5].wlan[0].radio receptionState:vector ETV
attr interpolationmode sample-hold
attr source receptionStateChanged
attr title "Radio reception state, vector"
vector 121 FanetSybilNormale.attacker[5].wlan[0].radio transmissionState:vector ETV
attr interpolationmode sample-hold
attr source transmissionStateChanged
attr title "Radio transmission state, vector"
vector 122 FanetSybilNormale.attacker[6].wlan[0].radio receptionState:vector ETV
attr interpolationmode sample-hold
attr source receptionStateChanged
attr title "Radio reception state, vector"
vector 123 FanetSybilNormale.attacker[6].wlan[0].radio transmissionState:vector ETV
attr interpolationmode sample-hold
attr source transmissionStateChanged
attr title "Radio transmission state, vector"
vector 124 FanetSybilNormale.attacker[7].wlan[0].radio receptionState:vector ETV
attr interpolationmode sample-hold
attr source receptionStateChanged
attr title "Radio reception state, vector"
vector 125 FanetSybilNormale.attacker[7].wlan[0].radio transmissionState:vector ETV
attr interpolationmode sample-hold
attr source transmissionStateChanged
attr title "Radio transmission state, vector"
vector 126 FanetSybilNormale.attacker[8].wlan[0].radio receptionState:vector ETV
attr interpolationmode sample-hold
attr source receptionStateChanged
attr title "Radio reception state, vector"
vector 127 FanetSybilNormale.attacker[8].wlan[0].radio transmissionState:vector ETV
attr interpolationmode sample-hold
attr source transmissionStateChanged
attr title "Radio transmission state, vector"
vector 128 FanetSybilNormale.attacker[9].wlan[0].radio receptionState:vector ETV
attr interpolationmode sample-hold
attr source receptionStateChanged
attr title "Radio reception state, vector"
vector 129 FanetSybilNormale.attacker[9].wlan[0].radio transmissionState:vector ETV
attr interpolationmode sample-hold
attr source transmissionStateChanged
attr title "Radio transmission state, vector"
vector 130 FanetSybilNormale.attacker[10].wlan[0].radio receptionState:vector ETV
attr interpolationmode sample-hold
attr source receptionStateChanged
attr title "Radio reception state, vector"
vector 131 FanetSybilNormale.attacker[10].wlan[0].radio transmissionState:vector ETV
attr interpolationmode sample-hold
attr source transmissionStateChanged
attr title "Radio transmission state, vector"
vector 132 FanetSybilNormale.attacker[11].wlan[0].radio receptionState:vector ETV
attr interpolationmode sample-hold
attr source receptionStateChanged
attr title "Radio reception state, vector"
vector 133 FanetSybilNormale.attacker[11].wlan[0].radio transmissionState:vector ETV
attr interpolationmode sample-hold
attr source transmissionStateChanged
attr title "Radio transmission state, vector"
vector 134 FanetSybilNormale.attacker[12].wlan[0].radio receptionState:vector ETV
attr interpolationmode sample-hold
attr source receptionStateChanged
attr title "Radio reception state, vector"
vector 135 FanetSybilNormale.attacker[12].wlan[0].radio transmissionState:vector ETV
attr interpolationmode sample-hold
attr source transmissionStateChanged
attr title "Radio transmission state, vector"
vector 136 FanetSybilNormale.attacker[13].wlan[0].radio receptionState:vector ETV
attr interpolationmode sample-hold
attr source receptionStateChanged
attr title "Radio reception state, vector"
vector 137 FanetSybilNormale.attacker[13].wlan[0].radio transmissionState:vector ETV
attr interpolationmode sample-hold
attr source transmissionStateChanged
attr title "Radio transmission state, vector"
vector 138 FanetSybilNormale.attacker[14].wlan[0].radio receptionState:vector ETV
attr interpolationmode sample-hold
attr source receptionStateChanged
attr title "Radio reception state, vector"
vector 139 FanetSybilNormale.attacker[14].wlan[0].radio transmissionState:vector ETV
attr interpolationmode sample-hold
attr source transmissionStateChanged
attr title "Radio transmission state, vector"
vector 140 FanetSybilNormale.attacker[15].wlan[0].radio receptionState:vector ETV
attr interpolationmode sample-hold
attr source receptionStateChanged
attr title "Radio reception state, vector"
vector 141 FanetSybilNormale.attacker[15].wlan[0].radio transmissionState:vector ETV
attr interpolationmode sample-hold
attr source transmissionStateChanged
attr title "Radio transmission state, vector"
vector 142 FanetSybilNormale.attacker[16].wlan[0].radio receptionState:vector ETV
attr interpolationmode sample-hold
attr source receptionStateChanged
attr title "Radio reception state, vector"
vector 143 FanetSybilNormale.attacker[16].wlan[0].radio transmissionState:vector ETV
attr interpolationmode sample-hold
attr source transmissionStateChanged
attr title "Radio transmission state, vector"
vector 144 FanetSybilNormale.attacker[17].wlan[0].radio receptionState:vector ETV
attr interpolationmode sample-hold
attr source receptionStateChanged
attr title "Radio reception state, vector"
vector 145 FanetSybilNormale.attacker[17].wlan[0].radio transmissionState:vector ETV
attr interpolationmode sample-hold
attr source transmissionStateChanged
attr title "Radio transmission state, vector"
vector 146 FanetSybilNormale.attacker[18].wlan[0].radio receptionState:vector ETV
attr interpolationmode sample-hold
attr source receptionStateChanged
attr title "Radio reception state, vector"
vector 147 FanetSybilNormale.attacker[18].wlan[0].radio transmissionState:vector ETV
attr interpolationmode sample-hold
attr source transmissionStateChanged
attr title "Radio transmission state, vector"
vector 148 FanetSybilNormale.attacker[19].wlan[0].radio receptionState:vector ETV
attr interpolationmode sample-hold
attr source receptionStateChanged
attr title "Radio reception state, vector"
vector 149 FanetSybilNormale.attacker[19].wlan[0].radio transmissionState:vector ETV
attr interpolationmode sample-hold
attr source transmissionStateChanged
attr title "Radio transmission state, vector"
vector 150 FanetSybilNormale.attacker[2].wlan[0].mac rcvdPkFromHl:vector(packetBytes) ETV
attr interpolationmode none
attr source packetReceivedFromUpper
attr title "packets received from higher layer, vector(packetBytes)"
vector 151 FanetSybilNormale.attacker[2].wlan[0].mac.queue packetPushed:vector(packetBytes) ETV
attr interpolationmode none
attr title "packet pushed, vector(packetBytes)"
vector 152 FanetSybilNormale.attacker[2].wlan[0].mac.queue queueLength:vector ETV
attr interpolationmode sample-hold
attr source "count(packetPushed) - count(packetPopped) - count(packetRemoved) - count(packetDropped)"
attr title "queue length, vector"
vector 153 FanetSybilNormale.attacker[2].wlan[0].mac.queue packetPopped:vector(packetBytes) ETV
attr interpolationmode none
attr title "packet popped, vector(packetBytes)"
vector 154 FanetSybilNormale.attacker[2].wlan[0].mac.queue queueingTime:vector ETV
attr interpolationmode none
attr source queueingTime(packetPopped)
attr title "queueing times, vector"
attr unit s
vector 155 FanetSybilNormale.attacker[2].wlan[0].mac sentDownPk:vector(packetBytes) ETV
attr interpolationmode none
attr source packetSentToLower
attr title "packets sent to lower layer, vector(packetBytes)"
vector 156 FanetSybilNormale.host[15].wlan[0].mac rcvdPkFromLl:vector(packetBytes) ETV
attr interpolationmode none
attr source packetReceivedFromLower
attr title "packets received from lower layer, vector(packetBytes)"
vector 157 FanetSybilNormale.host[15].wlan[0].mac passedUpPk:vector(packetBytes) ETV
attr interpolationmode none
attr source packetSentToUpper
attr title "packets passed to higher layer, vector(packetBytes)"
vector 158 FanetSybilNormale.host[4].wlan[0].mac rcvdPkFromLl:vector(packetBytes) ETV
attr interpolationmode none
attr source packetReceivedFromLower
attr title "packets received from lower layer, vector(packetBytes)"
vector 159 FanetSybilNormale.host[4].wlan[0].mac passedUpPk:vector(packetBytes) ETV
attr interpolationmode none
attr source packetSentToUpper
attr title "packets passed to higher layer, vector(packetBytes)"
vector 160 FanetSybilNormale.host[16].wlan[0].mac rcvdPkFromLl:vector(packetBytes) ETV
attr interpolationmode none
attr source packetReceivedFromLower
attr title "packets received from lower layer, vector(packetBytes)"
vector 161 FanetSybilNormale.host[16].wlan[0].mac passedUpPk:vector(packetBytes) ETV
attr interpolationmode none
attr source packetSentToUpper
attr title "packets passed to higher layer, vector(packetBytes)"
vector 162 FanetSybilNormale.attacker[3].wlan[0].mac rcvdPkFromLl:vector(packetBytes) ETV
attr interpolationmode none
attr source packetReceivedFromLower
attr title "packets received from lower layer, vector(packetBytes)"
vector 163 FanetSybilNormale.attacker[3].wlan[0].mac passedUpPk:vector(packetBytes) ETV
attr interpolationmode none
attr source packetSentToUpper
attr title "packets passed to higher layer, vector(packetBytes)"
vector 164 FanetSybilNormale.attacker[5].wlan[0].mac rcvdPkFromLl:vector(packetBytes) ETV
attr interpolationmode none
attr source packetReceivedFromLower
attr title "packets received from lower layer, vector(packetBytes)"
vector 165 FanetSybilNormale.attacker[5].wlan[0].mac passedUpPk:vector(packetBytes) ETV
attr interpolationmode none
attr source packetSentToUpper
attr title "packets passed to higher layer, vector(packetBytes)"
vector 166 FanetSybilNormale.host[7].wlan[0].mac rcvdPkFromLl:vector(packetBytes) ETV
attr interpolationmode none
attr source packetReceivedFromLower
attr title "packets received from lower layer, vector(packetBytes)"
vector 167 FanetSybilNormale.host[7].wlan[0].mac passedUpPk:vector(packetBytes) ETV
attr interpolationmode none
attr source packetSentToUpper
attr title "packets passed to higher layer, vector(packetBytes)"
vector 168 FanetSybilNormale.host[15].wlan[0].mac rcvdPkFromHl:vector(packetBytes) ETV
attr interpolationmode none
attr source packetReceivedFromUpper
attr title "packets received from higher layer, vector(packetBytes)"
vector 169 FanetSybilNormale.host[15].wlan[0].mac.queue packetPushed:vector(packetBytes) ETV
attr interpolationmode none
attr title "packet pushed, vector(packetBytes)"
vector 170 FanetSybilNormale.host[15].wlan[0].mac.queue queueLength:vector ETV
attr interpolationmode sample-hold
attr source "count(packetPushed) - count(packetPopped) - count(packetRemoved) - count(packetDropped)"
attr title "queue length, vector"
vector 171 FanetSybilNormale.host[15].wlan[0].mac.queue packetPopped:vector(packetBytes) ETV
attr interpolationmode none
attr title "packet popped, vector(packetBytes)"
vector 172 FanetSybilNormale.host[15].wlan[0].mac.queue queueingTime:vector ETV
attr interpolationmode none
attr source queueingTime(packetPopped)
attr title "queueing times, vector"
attr unit s
vector 173 FanetSybilNormale.host[15].wlan[0].mac sentDownPk:vector(packetBytes) ETV
attr interpolationmode none
attr source packetSentToLower
attr title "packets sent to lower layer, vector(packetBytes)"
vector 174 FanetSybilNormale.attacker[2].wlan[0].mac rcvdPkFromLl:vector(packetBytes) ETV
attr interpolationmode none
attr source packetReceivedFromLower
attr title "packets received from lower layer, vector(packetBytes)"
vector 175 FanetSybilNormale.attacker[2].wlan[0].mac passedUpPk:vector(packetBytes) ETV
attr interpolationmode none
attr source packetSentToUpper
attr title "packets passed to higher layer, vector(packetBytes)"
vector 176 FanetSybilNormale.host[28].wlan[0].mac rcvdPkFromHl:vector(packetBytes) ETV
attr interpolationmode none
attr source packetReceivedFromUpper
attr title "packets received from higher layer, vector(packetBytes)"
vector 177 FanetSybilNormale.host[28].wlan[0].mac.queue packetPushed:vector(packetBytes) ETV
attr interpolationmode none
attr title "packet pushed, vector(packetBytes)"
vector 178 FanetSybilNormale.host[28].wlan[0].mac.queue queueLength:vector ETV
attr interpolationmode sample-hold
attr source "count(packetPushed) - count(packetPopped) - count(packetRemoved) - count(packetDropped)"
attr title "queue length, vector"
vector 179 FanetSybilNormale.host[28].wlan[0].mac.queue packetPopped:vector(packetBytes) ETV
attr interpolationmode none
attr title "packet popped, vector(packetBytes)"
vector 180 FanetSybilNormale.host[28].wlan[0].mac.queue queueingTime:vector ETV
attr interpolationmode none
attr source queueingTime(packetPopped)
attr title "queueing times, vector"
attr unit s
vector 181 FanetSybilNormale.host[28].wlan[0].mac sentDownPk:vector(packetBytes) ETV
attr interpolationmode none
attr source packetSentToLower
attr title "packets sent to lower layer, vector(packetBytes)"
vector 182 FanetSybilNormale.host[2].wlan[0].mac rcvdPkFromLl:vector(packetBytes) ETV
attr interpolationmode none
attr source packetReceivedFromLower
attr title "packets received from lower layer, vector(packetBytes)"
vector 183 FanetSybilNormale.host[2].wlan[0].mac passedUpPk:vector(packetBytes) ETV
attr interpolationmode none
attr source packetSentToUpper
attr title "packets passed to higher layer, vector(packetBytes)"
vector 184 FanetSybilNormale.attacker[1].wlan[0].mac rcvdPkFromLl:vector(packetBytes) ETV
attr interpolationmode none
attr source packetReceivedFromLower
attr title "packets received from lower layer, vector(packetBytes)"
vector 185 FanetSybilNormale.attacker[1].wlan[0].mac passedUpPk:vector(packetBytes) ETV
attr interpolationmode none
attr source packetSentToUpper
attr title "packets passed to higher layer, vector(packetBytes)"
vector 186 FanetSybilNormale.attacker[4].wlan[0].mac rcvdPkFromLl:vector(packetBytes) ETV
attr interpolationmode none
attr source packetReceivedFromLower
attr title "packets received from lower layer, vector(packetBytes)"
vector 187 FanetSybilNormale.attacker[4].wlan[0].mac passedUpPk:vector(packetBytes) ETV
attr interpolationmode none
attr source packetSentToUpper
attr title "packets passed to higher layer, vector(packetBytes)"
vector 188 FanetSybilNormale.host[3].wlan[0].mac rcvdPkFromLl:vector(packetBytes) ETV
attr interpolationmode none
attr source packetReceivedFromLower
attr title "packets received from lower layer, vector(packetBytes)"
vector 189 FanetSybilNormale.host[3].wlan[0].mac passedUpPk:vector(packetBytes) ETV
attr interpolationmode none
attr source packetSentToUpper
attr title "packets passed to higher layer, vector(packetBytes)"
vector 190 FanetSybilNormale.attacker[0].wlan[0].mac rcvdPkFromHl:vector(packetBytes) ETV
attr interpolationmode none
attr source packetReceivedFromUpper
attr title "packets received from higher layer, vector(packetBytes)"
vector 191 FanetSybilNormale.attacker[0].wlan[0].mac.queue packetPushed:vector(packetBytes) ETV
attr interpolationmode none
attr title "packet pushed, vector(packetBytes)"
vector 192 FanetSybilNormale.attacker[0].wlan[0].mac.queue queueLength:vector ETV
attr interpolationmode sample-hold
attr source "count(packetPushed) - count(packetPopped) - count(packetRemoved) - count(packetDropped)"
attr title "queue length, vector"
vector 193 FanetSybilNormale.attacker[0].wlan[0].mac.queue packetPopped:vector(packetBytes) ETV
attr interpolationmode none
attr title "packet popped, vector(packetBytes)"
vector 194 FanetSybilNormale.attacker[0].wlan[0].mac.queue queueingTime:vector ETV
attr interpolationmode none
attr source queueingTime(packetPopped)
attr title "queueing times, vector"
attr unit s
vector 195 FanetSybilNormale.attacker[0].wlan[0].mac sentDownPk:vector(packetBytes) ETV
attr interpolationmode none
attr source packetSentToLower
attr title "packets sent to lower layer, vector(packetBytes)"
vector 196 FanetSybilNormale.attacker[18].wlan[0].mac rcvdPkFromLl:vector(packetBytes) ETV
attr interpolationmode none
attr source packetReceivedFromLower
attr title "packets received from lower layer, vector(packetBytes)"
vector 197 FanetSybilNormale.attacker[18].wlan[0].mac passedUpPk:vector(packetBytes) ETV
attr interpolationmode none
attr source packetSentToUpper
attr title "packets passed to higher layer, vector(packetBytes)"
vector 198 FanetSybilNormale.host[27].wlan[0].mac rcvdPkFromLl:vector(packetBytes) ETV
attr interpolationmode none
attr source packetReceivedFromLower
attr title "packets received from lower layer, vector(packetBytes)"
vector 199 FanetSybilNormale.host[27].wlan[0].mac passedUpPk:vector(packetBytes) ETV
attr interpolationmode none
attr source packetSentToUpper
attr title "packets passed to higher layer, vector(packetBytes)"
vector 200 FanetSybilNormale.host[12].wlan[0].mac rcvdPkFromLl:vector(packetBytes) ETV
attr interpolationmode none
attr source packetReceivedFromLower
attr title "packets received from lower layer, vector(packetBytes)"
vector 201 FanetSybilNormale.host[12].wlan[0].mac passedUpPk:vector(packetBytes) ETV
attr interpolationmode none
attr source packetSentToUpper
attr title "packets passed to higher layer, vector(packetBytes)"
vector 202 FanetSybilNormale.attacker[10].wlan[0].mac rcvdPkFromLl:vector(packetBytes) ETV
attr interpolationmode none
attr source packetReceivedFromLower
attr title "packets received from lower layer, vector(packetBytes)"
vector 203 FanetSybilNormale.attacker[10].wlan[0].mac passedUpPk:vector(packetBytes) ETV
attr interpolationmode none
attr source packetSentToUpper
attr title "packets passed to higher layer, vector(packetBytes)"
vector 204 FanetSybilNormale.attacker[13].wlan[0].mac rcvdPkFromLl:vector(packetBytes) ETV
attr interpolationmode none
attr source packetReceivedFromLower
attr title "packets received from lower layer, vector(packetBytes)"
vector 205 FanetSybilNormale.attacker[13].wlan[0].mac passedUpPk:vector(packetBytes) ETV
attr interpolationmode none
attr source packetSentToUpper
attr title "packets passed to higher layer, vector(packetBytes)"
vector 206 FanetSybilNormale.attacker[18].wlan[0].mac rcvdPkFromHl:vector(packetBytes) ETV
attr interpolationmode none
attr source packetReceivedFromUpper
attr title "packets received from higher layer, vector(packetBytes)"
vector 207 FanetSybilNormale.attacker[18].wlan[0].mac.queue packetPushed:vector(packetBytes) ETV
attr interpolationmode none
attr title "packet pushed, vector(packetBytes)"
vector 208 FanetSybilNormale.attacker[18].wlan[0].mac.queue queueLength:vector ETV
attr interpolationmode sample-hold
attr source "count(packetPushed) - count(packetPopped) - count(packetRemoved) - count(packetDropped)"
attr title "queue length, vector"
vector 209 FanetSybilNormale.attacker[18].wlan[0].mac.queue packetPopped:vector(packetBytes) ETV
attr interpolationmode none
attr title "packet popped, vector(packetBytes)"
vector 210 FanetSybilNormale.attacker[18].wlan[0].mac.queue queueingTime:vector ETV
attr interpolationmode none
attr source queueingTime(packetPopped)
attr title "queueing times, vector"
attr unit s
vector 211 FanetSybilNormale.attacker[18].wlan[0].mac sentDownPk:vector(packetBytes) ETV
attr interpolationmode none
attr source packetSentToLower
attr title "packets sent to lower layer, vector(packetBytes)"
vector 212 FanetSybilNormale.attacker[0].wlan[0].mac rcvdPkFromLl:vector(packetBytes) ETV
attr interpolationmode none
attr source packetReceivedFromLower
attr title "packets received from lower layer, vector(packetBytes)"
vector 213 FanetSybilNormale.attacker[0].wlan[0].mac passedUpPk:vector(packetBytes) ETV
attr interpolationmode none
attr source packetSentToUpper
attr title "packets passed to higher layer, vector(packetBytes)"
vector 214 FanetSybilNormale.attacker[6].wlan[0].mac rcvdPkFromLl:vector(packetBytes) ETV
attr interpolationmode none
attr source packetReceivedFromLower
attr title "packets received from lower layer, vector(packetBytes)"
vector 215 FanetSybilNormale.attacker[6].wlan[0].mac passedUpPk:vector(packetBytes) ETV
attr interpolationmode none
attr source packetSentToUpper
attr title "packets passed to higher layer, vector(packetBytes)"
vector 216 FanetSybilNormale.attacker[7].wlan[0].mac rcvdPkFromHl:vector(packetBytes) ETV
attr interpolationmode none
attr source packetReceivedFromUpper
attr title "packets received from higher layer, vector(packetBytes)"
vector 217 FanetSybilNormale.attacker[7].wlan[0].mac.queue packetPushed:vector(packetBytes) ETV
attr interpolationmode none
attr title "packet pushed, vector(packetBytes)"
vector 218 FanetSybilNormale.attacker[7].wlan[0].mac.queue queueLength:vector ETV
attr interpolationmode sample-hold
attr source "count(packetPushed) - count(packetPopped) - count(packetRemoved) - count(packetDropped)"
attr title "queue length, vector"
vector 219 FanetSybilNormale.attacker[7].wlan[0].mac.queue packetPopped:vector(packetBytes) ETV
attr interpolationmode none
attr title "packet popped, vector(packetBytes)"
vector 220 FanetSybilNormale.attacker[7].wlan[0].mac.queue queueingTime:vector ETV
attr interpolationmode none
attr source queueingTime(packetPopped)
attr title "queueing times, vector"
attr unit s
vector 221 FanetSybilNormale.attacker[7].wlan[0].mac sentDownPk:vector(packetBytes) ETV
attr interpolationmode none
attr source packetSentToLower
attr title "packets sent to lower layer, vector(packetBytes)"
vector 222 FanetSybilNormale.host[6].wlan[0].mac rcvdPkFromLl:vector(packetBytes) ETV
attr interpolationmode none
attr source packetReceivedFromLower
attr title "packets received from lower layer, vector(packetBytes)"
vector 223 FanetSybilNormale.host[6].wlan[0].mac passedUpPk:vector(packetBytes) ETV
attr interpolationmode none
attr source packetSentToUpper
attr title "packets passed to higher layer, vector(packetBytes)"
vector 224 FanetSybilNormale.host[17].wlan[0].mac rcvdPkFromHl:vector(packetBytes) ETV
attr interpolationmode none
attr source packetReceivedFromUpper
attr title "packets received from higher layer, vector(packetBytes)"
vector 225 FanetSybilNormale.host[17].wlan[0].mac.queue packetPushed:vector(packetBytes) ETV
attr interpolationmode none
attr title "packet pushed, vector(packetBytes)"
vector 226 FanetSybilNormale.host[17].wlan[0].mac.queue queueLength:vector ETV
attr interpolationmode sample-hold
attr source "count(packetPushed) - count(packetPopped) - count(packetRemoved) - count(packetDropped)"
attr title "queue length, vector"
vector 227 FanetSybilNormale.host[17].wlan[0].mac.queue packetPopped:vector(packetBytes) ETV
attr interpolationmode none
attr title "packet popped, vector(packetBytes)"
vector 228 FanetSybilNormale.host[17].wlan[0].mac.queue queueingTime:vector ETV
attr interpolationmode none
attr source queueingTime(packetPopped)
attr title "queueing times, vector"
attr unit s
vector 229 FanetSybilNormale.host[17].wlan[0].mac sentDownPk:vector(packetBytes) ETV
attr interpolationmode none
attr source packetSentToLower
attr title "packets sent to lower layer, vector(packetBytes)"
vector 230 FanetSybilNormale.attacker[17].wlan[0].mac rcvdPkFromLl:vector(packetBytes) ETV
attr interpolationmode none
attr source packetReceivedFromLower
attr title "packets received from lower layer, vector(packetBytes)"
vector 231 FanetSybilNormale.attacker[17].wlan[0].mac passedUpPk:vector(packetBytes) ETV
attr interpolationmode none
attr source packetSentToUpper
attr title "packets passed to higher layer, vector(packetBytes)"
vector 232 FanetSybilNormale.attacker[19].wlan[0].mac rcvdPkFromLl:vector(packetBytes) ETV
attr interpolationmode none
attr source packetReceivedFromLower
attr title "packets received from lower layer, vector(packetBytes)"
vector 233 FanetSybilNormale.attacker[19].wlan[0].mac passedUpPk:vector(packetBytes) ETV
attr interpolationmode none
attr source packetSentToUpper
attr title "packets passed to higher layer, vector(packetBytes)"
vector 234 FanetSybilNormale.host[5].wlan[0].mac rcvdPkFromLl:vector(packetBytes) ETV
attr interpolationmode none
attr source packetReceivedFromLower
attr title "packets received from lower layer, vector(packetBytes)"
vector 235 FanetSybilNormale.host[5].wlan[0].mac passedUpPk:vector(packetBytes) ETV
attr interpolationmode none
attr source packetSentToUpper
attr title "packets passed to higher layer, vector(packetBytes)"
vector 236 FanetSybilNormale.attacker[11].wlan[0].mac rcvdPkFromLl:vector(packetBytes) ETV
attr interpolationmode none
attr source packetReceivedFromLower
attr title "packets received from lower layer, vector(packetBytes)"
vector 237 FanetSybilNormale.attacker[11].wlan[0].mac passedUpPk:vector(packetBytes) ETV
attr interpolationmode none
attr source packetSentToUpper
attr title "packets passed to higher layer, vector(packetBytes)"
vector 238 FanetSybilNormale.attacker[9].wlan[0].mac rcvdPkFromLl:vector(packetBytes) ETV
attr interpolationmode none
attr source packetReceivedFromLower
attr title "packets received from lower layer, vector(packetBytes)"
vector 239 FanetSybilNormale.attacker[9].wlan[0].mac passedUpPk:vector(packetBytes) ETV
attr interpolationmode none
attr source packetSentToUpper
attr title "packets passed to higher layer, vector(packetBytes)"
vector 240 FanetSybilNormale.attacker[14].wlan[0].mac rcvdPkFromLl:vector(packetBytes) ETV
attr interpolationmode none
attr source packetReceivedFromLower
attr title "packets received from lower layer, vector(packetBytes)"
vector 241 FanetSybilNormale.attacker[14].wlan[0].mac passedUpPk:vector(packetBytes) ETV
attr interpolationmode none
attr source packetSentToUpper
attr title "packets passed to higher layer, vector(packetBytes)"
vector 242 FanetSybilNormale.host[13].wlan[0].mac rcvdPkFromHl:vector(packetBytes) ETV
attr interpolationmode none
attr source packetReceivedFromUpper
attr title "packets received from higher layer, vector(packetBytes)"
vector 243 FanetSybilNormale.host[13].wlan[0].mac.queue packetPushed:vector(packetBytes) ETV
attr interpolationmode none
attr title "packet pushed, vector(packetBytes)"
vector 244 FanetSybilNormale.host[13].wlan[0].mac.queue queueLength:vector ETV
attr interpolationmode sample-hold
attr source "count(packetPushed) - count(packetPopped) - count(packetRemoved) - count(packetDropped)"
attr title "queue length, vector"
vector 245 FanetSybilNormale.host[13].wlan[0].mac.queue packetPopped:vector(packetBytes) ETV
attr interpolationmode none
attr title "packet popped, vector(packetBytes)"
vector 246 FanetSybilNormale.host[13].wlan[0].mac.queue queueingTime:vector ETV
attr interpolationmode none
attr source queueingTime(packetPopped)
attr title "queueing times, vector"
attr unit s
vector 247 FanetSybilNormale.host[13].wlan[0].mac sentDownPk:vector(packetBytes) ETV
attr interpolationmode none
attr source packetSentToLower
attr title "packets sent to lower layer, vector(packetBytes)"
vector 248 FanetSybilNormale.host[22].wlan[0].mac rcvdPkFromLl:vector(packetBytes) ETV
attr interpolationmode none
attr source packetReceivedFromLower
attr title "packets received from lower layer, vector(packetBytes)"
vector 249 FanetSybilNormale.host[22].wlan[0].mac passedUpPk:vector(packetBytes) ETV
attr interpolationmode none
attr source packetSentToUpper
attr title "packets passed to higher layer, vector(packetBytes)"
vector 250 FanetSybilNormale.host[24].wlan[0].mac rcvdPkFromLl:vector(packetBytes) ETV
attr interpolationmode none
attr source packetReceivedFromLower
attr title "packets received from lower layer, vector(packetBytes)"
vector 251 FanetSybilNormale.host[24].wlan[0].mac passedUpPk:vector(packetBytes) ETV
attr interpolationmode none
attr source packetSentToUpper
attr title "packets passed to higher layer, vector(packetBytes)"
vector 252 FanetSybilNormale.host[29].wlan[0].mac rcvdPkFromHl:vector(packetBytes) ETV
attr interpolationmode none
attr source packetReceivedFromUpper
attr title "packets received from higher layer, vector(packetBytes)"
vector 253 FanetSybilNormale.host[29].wlan[0].mac.queue packetPushed:vector(packetBytes) ETV
attr interpolationmode none
attr title "packet pushed, vector(packetBytes)"
vector 254 FanetSybilNormale.host[29].wlan[0].mac.queue queueLength:vector ETV
attr interpolationmode sample-hold
attr source "count(packetPushed) - count(packetPopped) - count(packetRemoved) - count(packetDropped)"
attr title "queue length, vector"
vector 255 FanetSybilNormale.host[29].wlan[0].mac.queue packetPopped:vector(packetBytes) ETV
attr interpolationmode none
attr title "packet popped, vector(packetBytes)"
vector 256 FanetSybilNormale.host[29].wlan[0].mac.queue queueingTime:vector ETV
attr interpolationmode none
attr source queueingTime(packetPopped)
attr title "queueing times, vector"
attr unit s
vector 257 FanetSybilNormale.host[29].wlan[0].mac sentDownPk:vector(packetBytes) ETV
attr interpolationmode none
attr source packetSentToLower
attr title "packets sent to lower layer, vector(packetBytes)"
vector 258 FanetSybilNormale.host[1].wlan[0].mac rcvdPkFromLl:vector(packetBytes) ETV
attr interpolationmode none
attr source packetReceivedFromLower
attr title "packets received from lower layer, vector(packetBytes)"
vector 259 FanetSybilNormale.host[1].wlan[0].mac passedUpPk:vector(packetBytes) ETV
attr interpolationmode none
attr source packetSentToUpper
attr title "packets passed to higher layer, vector(packetBytes)"
vector 260 FanetSybilNormale.attacker[3].wlan[0].mac rcvdPkFromHl:vector(packetBytes) ETV
attr interpolationmode none
attr source packetReceivedFromUpper
attr title "packets received from higher layer, vector(packetBytes)"
vector 261 FanetSybilNormale.attacker[3].wlan[0].mac.queue packetPushed:vector(packetBytes) ETV
attr interpolationmode none
attr title "packet pushed, vector(packetBytes)"
vector 262 FanetSybilNormale.attacker[3].wlan[0].mac.queue queueLength:vector ETV
attr interpolationmode sample-hold
attr source "count(packetPushed) - count(packetPopped) - count(packetRemoved) - count(packetDropped)"
attr title "queue length, vector"
vector 263 FanetSybilNormale.attacker[3].wlan[0].mac.queue packetPopped:vector(packetBytes) ETV
attr interpolationmode none
attr title "packet popped, vector(packetBytes)"
vector 264 FanetSybilNormale.attacker[3].wlan[0].mac.queue queueingTime:vector ETV
attr interpolationmode none
attr source queueingTime(packetPopped)
attr title "queueing times, vector"
attr unit s
vector 265 FanetSybilNormale.attacker[3].wlan[0].mac sentDownPk:vector(packetBytes) ETV
attr interpolationmode none
attr source packetSentToLower
attr title "packets sent to lower layer, vector(packetBytes)"
vector 266 FanetSybilNormale.host[18].wlan[0].mac rcvdPkFromLl:vector(packetBytes) ETV
attr interpolationmode none
attr source packetReceivedFromLower
attr title "packets received from lower layer, vector(packetBytes)"
vector 267 FanetSybilNormale.host[18].wlan[0].mac passedUpPk:vector(packetBytes) ETV
attr interpolationmode none
attr source packetSentToUpper
attr title "packets passed to higher layer, vector(packetBytes)"
vector 268 FanetSybilNormale.host[18].wlan[0].mac rcvdPkFromHl:vector(packetBytes) ETV
attr interpolationmode none
attr source packetReceivedFromUpper
attr title "packets received from higher layer, vector(packetBytes)"
vector 269 FanetSybilNormale.host[18].wlan[0].mac.queue packetPushed:vector(packetBytes) ETV
attr interpolationmode none
attr title "packet pushed, vector(packetBytes)"
vector 270 FanetSybilNormale.host[18].wlan[0].mac.queue queueLength:vector ETV
attr interpolationmode sample-hold
attr source "count(packetPushed) - count(packetPopped) - count(packetRemoved) - count(packetDropped)"
attr title "queue length, vector"
vector 271 FanetSybilNormale.host[18].wlan[0].mac.queue packetPopped:vector(packetBytes) ETV
attr interpolationmode none
attr title "packet popped, vector(packetBytes)"
vector 272 FanetSybilNormale.host[18].wlan[0].mac.queue queueingTime:vector ETV
attr interpolationmode none
attr source queueingTime(packetPopped)
attr title "queueing times, vector"
attr unit s
vector 273 FanetSybilNormale.host[18].wlan[0].mac sentDownPk:vector(packetBytes) ETV
attr interpolationmode none
attr source packetSentToLower
attr title "packets sent to lower layer, vector(packetBytes)"
vector 274 FanetSybilNormale.host[0].wlan[0].mac rcvdPkFromLl:vector(packetBytes) ETV
attr interpolationmode none
attr source packetReceivedFromLower
attr title "packets received from lower layer, vector(packetBytes)"
vector 275 FanetSybilNormale.host[0].wlan[0].mac passedUpPk:vector(packetBytes) ETV
attr interpolationmode none
attr source packetSentToUpper
attr title "packets passed to higher layer, vector(packetBytes)"
vector 276 FanetSybilNormale.host[9].wlan[0].mac rcvdPkFromLl:vector(packetBytes) ETV
attr interpolationmode none
attr source packetReceivedFromLower
attr title "packets received from lower layer, vector(packetBytes)"
vector 277 FanetSybilNormale.host[9].wlan[0].mac passedUpPk:vector(packetBytes) ETV
attr interpolationmode none
attr source packetSentToUpper
attr title "packets passed to higher layer, vector(packetBytes)"
vector 278 FanetSybilNormale.host[11].wlan[0].mac rcvdPkFromHl:vector(packetBytes) ETV
attr interpolationmode none
attr source packetReceivedFromUpper
attr title "packets received from higher layer, vector(packetBytes)"
vector 279 FanetSybilNormale.host[11].wlan[0].mac.queue packetPushed:vector(packetBytes) ETV
attr interpolationmode none
attr title "packet pushed, vector(packetBytes)"
vector 280 FanetSybilNormale.host[11].wlan[0].mac.queue queueLength:vector ETV
attr interpolationmode sample-hold
attr source "count(packetPushed) - count(packetPopped) - count(packetRemoved) - count(packetDropped)"
attr title "queue length, vector"
vector 281 FanetSybilNormale.host[11].wlan[0].mac.queue packetPopped:vector(packetBytes) ETV
attr interpolationmode none
attr title "packet popped, vector(packetBytes)"
vector 282 FanetSybilNormale.host[11].wlan[0].mac.queue queueingTime:vector ETV
attr interpolationmode none
attr source queueingTime(packetPopped)
attr title "queueing times, vector"
attr unit s
vector 283 FanetSybilNormale.host[11].wlan[0].mac sentDownPk:vector(packetBytes) ETV
attr interpolationmode none
attr source packetSentToLower
attr title "packets sent to lower layer, vector(packetBytes)"
vector 284 FanetSybilNormale.host[23].wlan[0].mac rcvdPkFromLl:vector(packetBytes) ETV
attr interpolationmode none
attr source packetReceivedFromLower
attr title "packets received from lower layer, vector(packetBytes)"
vector 285 FanetSybilNormale.host[23].wlan[0].mac passedUpPk:vector(packetBytes) ETV
attr interpolationmode none
attr source packetSentToUpper
attr title "packets passed to higher layer, vector(packetBytes)"
vector 286 FanetSybilNormale.host[25].wlan[0].mac rcvdPkFromHl:vector(packetBytes) ETV
attr interpolationmode none
attr source packetReceivedFromUpper
attr title "packets received from higher layer, vector(packetBytes)"
vector 287 FanetSybilNormale.host[25].wlan[0].mac.queue packetPushed:vector(packetBytes) ETV
attr interpolationmode none
attr title "packet pushed, vector(packetBytes)"
vector 288 FanetSybilNormale.host[25].wlan[0].mac.queue queueLength:vector ETV
attr interpolationmode sample-hold
attr source "count(packetPushed) - count(packetPopped) - count(packetRemoved) - count(packetDropped)"
attr title "queue length, vector"
vector 289 FanetSybilNormale.host[25].wlan[0].mac.queue packetPopped:vector(packetBytes) ETV
attr interpolationmode none
attr title "packet popped, vector(packetBytes)"
vector 290 FanetSybilNormale.host[25].wlan[0].mac.queue queueingTime:vector ETV
attr interpolationmode none
attr source queueingTime(packetPopped)
attr title "queueing times, vector"
attr unit s
vector 291 FanetSybilNormale.host[25].wlan[0].mac sentDownPk:vector(packetBytes) ETV
attr interpolationmode none
attr source packetSentToLower
attr title "packets sent to lower layer, vector(packetBytes)"
vector 292 FanetSybilNormale.attacker[12].wlan[0].mac rcvdPkFromLl:vector(packetBytes) ETV
attr interpolationmode none
attr source packetReceivedFromLower
attr title "packets received from lower layer, vector(packetBytes)"
vector 293 FanetSybilNormale.attacker[12].wlan[0].mac passedUpPk:vector(packetBytes) ETV
attr interpolationmode none
attr source packetSentToUpper
attr title "packets passed to higher layer, vector(packetBytes)"
vector 294 FanetSybilNormale.host[8].wlan[0].mac rcvdPkFromHl:vector(packetBytes) ETV
attr interpolationmode none
attr source packetReceivedFromUpper
attr title "packets received from higher layer, vector(packetBytes)"
vector 295 FanetSybilNormale.host[8].wlan[0].mac.queue packetPushed:vector(packetBytes) ETV
attr interpolationmode none
attr title "packet pushed, vector(packetBytes)"
vector 296 FanetSybilNormale.host[8].wlan[0].mac.queue queueLength:vector ETV
attr interpolationmode sample-hold
attr source "count(packetPushed) - count(packetPopped) - count(packetRemoved) - count(packetDropped)"
attr title "queue length, vector"
vector 297 FanetSybilNormale.host[8].wlan[0].mac.queue packetPopped:vector(packetBytes) ETV
attr interpolationmode none
attr title "packet popped, vector(packetBytes)"
vector 298 FanetSybilNormale.host[8].wlan[0].mac.queue queueingTime:vector ETV
attr interpolationmode none
attr source queueingTime(packetPopped)
attr title "queueing times, vector"
attr unit s
vector 299 FanetSybilNormale.host[8].wlan[0].mac sentDownPk:vector(packetBytes) ETV
attr interpolationmode none
attr source packetSentToLower
attr title "packets sent to lower layer, vector(packetBytes)"
vector 300 FanetSybilNormale.host[12].wlan[0].mac rcvdPkFromHl:vector(packetBytes) ETV
attr interpolationmode none
attr source packetReceivedFromUpper
attr title "packets received from higher layer, vector(packetBytes)"
vector 301 FanetSybilNormale.host[12].wlan[0].mac.queue packetPushed:vector(packetBytes) ETV
attr interpolationmode none
attr title "packet pushed, vector(packetBytes)"
vector 302 FanetSybilNormale.host[12].wlan[0].mac.queue queueLength:vector ETV
attr interpolationmode sample-hold
attr source "count(packetPushed) - count(packetPopped) - count(packetRemoved) - count(packetDropped)"
attr title "queue length, vector"
vector 303 FanetSybilNormale.host[12].wlan[0].mac.queue packetPopped:vector(packetBytes) ETV
attr interpolationmode none
attr title "packet popped, vector(packetBytes)"
vector 304 FanetSybilNormale.host[12].wlan[0].mac.queue queueingTime:vector ETV
attr interpolationmode none
attr source queueingTime(packetPopped)
attr title "queueing times, vector"
attr unit s
vector 305 FanetSybilNormale.host[12].wlan[0].mac sentDownPk:vector(packetBytes) ETV
attr interpolationmode none
attr source packetSentToLower
attr title "packets sent to lower layer, vector(packetBytes)"
vector 306 FanetSybilNormale.attacker[14].wlan[0].mac rcvdPkFromHl:vector(packetBytes) ETV
attr interpolationmode none
attr source packetReceivedFromUpper
attr title "packets received from higher layer, vector(packetBytes)"
vector 307 FanetSybilNormale.attacker[14].wlan[0].mac.queue packetPushed:vector(packetBytes) ETV
attr interpolationmode none
attr title "packet pushed, vector(packetBytes)"
vector 308 FanetSybilNormale.attacker[14].wlan[0].mac.queue queueLength:vector ETV
attr interpolationmode sample-hold
attr source "count(packetPushed) - count(packetPopped) - count(packetRemoved) - count(packetDropped)"
attr title "queue length, vector"
vector 309 FanetSybilNormale.attacker[14].wlan[0].mac.queue packetPopped:vector(packetBytes) ETV
attr interpolationmode none
attr title "packet popped, vector(packetBytes)"
vector 310 FanetSybilNormale.attacker[14].wlan[0].mac.queue queueingTime:vector ETV
attr interpolationmode none
attr source queueingTime(packetPopped)
attr title "queueing times, vector"
attr unit s
vector 311 FanetSybilNormale.attacker[14].wlan[0].mac sentDownPk:vector(packetBytes) ETV
attr interpolationmode none
attr source packetSentToLower
attr title "packets sent to lower layer, vector(packetBytes)"
vector 312 FanetSybilNormale.host[17].wlan[0].mac rcvdPkFromLl:vector(packetBytes) ETV
attr interpolationmode none
attr source packetReceivedFromLower
attr title "packets received from lower layer, vector(packetBytes)"
vector 313 FanetSybilNormale.host[17].wlan[0].mac passedUpPk:vector(packetBytes) ETV
attr interpolationmode none
attr source packetSentToUpper
attr title "packets passed to higher layer, vector(packetBytes)"
vector 314 FanetSybilNormale.attacker[11].wlan[0].mac rcvdPkFromHl:vector(packetBytes) ETV
attr interpolationmode none
attr source packetReceivedFromUpper
attr title "packets received from higher layer, vector(packetBytes)"
vector 315 FanetSybilNormale.attacker[11].wlan[0].mac.queue packetPushed:vector(packetBytes) ETV
attr interpolationmode none
attr title "packet pushed, vector(packetBytes)"
vector 316 FanetSybilNormale.attacker[11].wlan[0].mac.queue queueLength:vector ETV
attr interpolationmode sample-hold
attr source "count(packetPushed) - count(packetPopped) - count(packetRemoved) - count(packetDropped)"
attr title "queue length, vector"
vector 317 FanetSybilNormale.attacker[11].wlan[0].mac.queue packetPopped:vector(packetBytes) ETV
attr interpolationmode none
attr title "packet popped, vector(packetBytes)"
vector 318 FanetSybilNormale.attacker[11].wlan[0].mac.queue queueingTime:vector ETV
attr interpolationmode none
attr source queueingTime(packetPopped)
attr title "queueing times, vector"
attr unit s
vector 319 FanetSybilNormale.attacker[11].wlan[0].mac sentDownPk:vector(packetBytes) ETV
attr interpolationmode none
attr source packetSentToLower
attr title "packets sent to lower layer, vector(packetBytes)"
vector 320 FanetSybilNormale.host[19].wlan[0].mac rcvdPkFromLl:vector(packetBytes) ETV
attr interpolationmode none
attr source packetReceivedFromLower
attr title "packets received from lower layer, vector(packetBytes)"
vector 321 FanetSybilNormale.host[19].wlan[0].mac passedUpPk:vector(packetBytes) ETV
attr interpolationmode none
attr source packetSentToUpper
attr title "packets passed to higher layer, vector(packetBytes)"
vector 322 FanetSybilNormale.host[19].wlan[0].mac rcvdPkFromHl:vector(packetBytes) ETV
attr interpolationmode none
attr source packetReceivedFromUpper
attr title "packets received from higher layer, vector(packetBytes)"
vector 323 FanetSybilNormale.host[19].wlan[0].mac.queue packetPushed:vector(packetBytes) ETV
attr interpolationmode none
attr title "packet pushed, vector(packetBytes)"
vector 324 FanetSybilNormale.host[19].wlan[0].mac.queue queueLength:vector ETV
attr interpolationmode sample-hold
attr source "count(packetPushed) - count(packetPopped) - count(packetRemoved) - count(packetDropped)"
attr title "queue length, vector"
vector 325 FanetSybilNormale.host[19].wlan[0].mac.queue packetPopped:vector(packetBytes) ETV
attr interpolationmode none
attr title "packet popped, vector(packetBytes)"
vector 326 FanetSybilNormale.host[19].wlan[0].mac.queue queueingTime:vector ETV
attr interpolationmode none
attr source queueingTime(packetPopped)
attr title "queueing times, vector"
attr unit s
vector 327 FanetSybilNormale.host[19].wlan[0].mac sentDownPk:vector(packetBytes) ETV
attr interpolationmode none
attr source packetSentToLower
attr title "packets sent to lower layer, vector(packetBytes)"
vector 328 FanetSybilNormale.host[10].wlan[0].mac rcvdPkFromLl:vector(packetBytes) ETV
attr interpolationmode none
attr source packetReceivedFromLower
attr title "packets received from lower layer, vector(packetBytes)"
vector 329 FanetSybilNormale.host[10].wlan[0].mac passedUpPk:vector(packetBytes) ETV
attr interpolationmode none
attr source packetSentToUpper
attr title "packets passed to higher layer, vector(packetBytes)"
vector 330 FanetSybilNormale.host[20].wlan[0].mac rcvdPkFromLl:vector(packetBytes) ETV
attr interpolationmode none
attr source packetReceivedFromLower
attr title "packets received from lower layer, vector(packetBytes)"
vector 331 FanetSybilNormale.host[20].wlan[0].mac passedUpPk:vector(packetBytes) ETV
attr interpolationmode none
attr source packetSentToUpper
attr title "packets passed to higher layer, vector(packetBytes)"
vector 332 FanetSybilNormale.attacker[15].wlan[0].mac rcvdPkFromLl:vector(packetBytes) ETV
attr interpolationmode none
attr source packetReceivedFromLower
attr title "packets received from lower layer, vector(packetBytes)"
vector 333 FanetSybilNormale.attacker[15].wlan[0].mac passedUpPk:vector(packetBytes) ETV
attr interpolationmode none
attr source packetSentToUpper
attr title "packets passed to higher layer, vector(packetBytes)"
vector 334 FanetSybilNormale.host[23].wlan[0].mac rcvdPkFromHl:vector(packetBytes) ETV
attr interpolationmode none
attr source packetReceivedFromUpper
attr title "packets received from higher layer, vector(packetBytes)"
vector 335 FanetSybilNormale.host[23].wlan[0].mac.queue packetPushed:vector(packetBytes) ETV
attr interpolationmode none
attr title "packet pushed, vector(packetBytes)"
vector 336 FanetSybilNormale.host[23].wlan[0].mac.queue queueLength:vector ETV
attr interpolationmode sample-hold
attr source "count(packetPushed) - count(packetPopped) - count(packetRemoved) - count(packetDropped)"
attr title "queue length, vector"
vector 337 FanetSybilNormale.host[23].wlan[0].mac.queue packetPopped:vector(packetBytes) ETV
attr interpolationmode none
attr title "packet popped, vector(packetBytes)"
vector 338 FanetSybilNormale.host[23].wlan[0].mac.queue queueingTime:vector ETV
attr interpolationmode none
attr source queueingTime(packetPopped)
attr title "queueing times, vector"
attr unit s
vector 339 FanetSybilNormale.host[23].wlan[0].mac sentDownPk:vector(packetBytes) ETV
attr interpolationmode none
attr source packetSentToLower
attr title "packets sent to lower layer, vector(packetBytes)"
vector 340 FanetSybilNormale.host[11].wlan[0].mac rcvdPkFromLl:vector(packetBytes) ETV
attr interpolationmode none
attr source packetReceivedFromLower
attr title "packets received from lower layer, vector(packetBytes)"
vector 341 FanetSybilNormale.host[11].wlan[0].mac passedUpPk:vector(packetBytes) ETV
attr interpolationmode none
attr source packetSentToUpper
attr title "packets passed to higher layer, vector(packetBytes)"
vector 342 FanetSybilNormale.attacker[15].wlan[0].mac rcvdPkFromHl:vector(packetBytes) ETV
attr interpolationmode none
attr source packetReceivedFromUpper
attr title "packets received from higher layer, vector(packetBytes)"
vector 343 FanetSybilNormale.attacker[15].wlan[0].mac.queue packetPushed:vector(packetBytes) ETV
attr interpolationmode none
attr title "packet pushed, vector(packetBytes)"
vector 344 FanetSybilNormale.attacker[15].wlan[0].mac.queue queueLength:vector ETV
attr interpolationmode sample-hold
attr source "count(packetPushed) - count(packetPopped) - count(packetRemoved) - count(packetDropped)"
attr title "queue length, vector"
vector 345 FanetSybilNormale.attacker[15].wlan[0].mac.queue packetPopped:vector(packetBytes) ETV
attr interpolationmode none
attr title "packet popped, vector(packetBytes)"
vector 346 FanetSybilNormale.attacker[15].wlan[0].mac.queue queueingTime:vector ETV
attr interpolationmode none
attr source queueingTime(packetPopped)
attr title "queueing times, vector"
attr unit s
vector 347 FanetSybilNormale.attacker[15].wlan[0].mac sentDownPk:vector(packetBytes) ETV
attr interpolationmode none
attr source packetSentToLower
attr title "packets sent to lower layer, vector(packetBytes)"
vector 348 FanetSybilNormale.host[22].wlan[0].mac rcvdPkFromHl:vector(packetBytes) ETV
attr interpolationmode none
attr source packetReceivedFromUpper
attr title "packets received from higher layer, vector(packetBytes)"
vector 349 FanetSybilNormale.host[22].wlan[0].mac.queue packetPushed:vector(packetBytes) ETV
attr interpolationmode none
attr title "packet pushed, vector(packetBytes)"
vector 350 FanetSybilNormale.host[22].wlan[0].mac.queue queueLength:vector ETV
attr interpolationmode sample-hold
attr source "count(packetPushed) - count(packetPopped) - count(packetRemoved) - count(packetDropped)"
attr title "queue length, vector"
vector 351 FanetSybilNormale.host[22].wlan[0].mac.queue packetPopped:vector(packetBytes) ETV
attr interpolationmode none
attr title "packet popped, vector(packetBytes)"
vector 352 FanetSybilNormale.host[22].wlan[0].mac.queue queueingTime:vector ETV
attr interpolationmode none
attr source queueingTime(packetPopped)
attr title "queueing times, vector"
attr unit s
vector 353 FanetSybilNormale.host[22].wlan[0].mac sentDownPk:vector(packetBytes) ETV
attr interpolationmode none
attr source packetSentToLower
attr title "packets sent to lower layer, vector(packetBytes)"
vector 354 FanetSybilNormale.host[13].wlan[0].mac rcvdPkFromLl:vector(packetBytes) ETV
attr interpolationmode none
attr source packetReceivedFromLower
attr title "packets received from lower layer, vector(packetBytes)"
vector 355 FanetSybilNormale.host[13].wlan[0].mac passedUpPk:vector(packetBytes) ETV
attr interpolationmode none
attr source packetSentToUpper
attr title "packets passed to higher layer, vector(packetBytes)"
vector 356 FanetSybilNormale.host[6].wlan[0].mac rcvdPkFromHl:vector(packetBytes) ETV
attr interpolationmode none
attr source packetReceivedFromUpper
attr title "packets received from higher layer, vector(packetBytes)"
vector 357 FanetSybilNormale.host[6].wlan[0].mac.queue packetPushed:vector(packetBytes) ETV
attr interpolationmode none
attr title "packet pushed, vector(packetBytes)"
vector 358 FanetSybilNormale.host[6].wlan[0].mac.queue queueLength:vector ETV
attr interpolationmode sample-hold
attr source "count(packetPushed) - count(packetPopped) - count(packetRemoved) - count(packetDropped)"
attr title "queue length, vector"
vector 359 FanetSybilNormale.host[6].wlan[0].mac.queue packetPopped:vector(packetBytes) ETV
attr interpolationmode none
attr title "packet popped, vector(packetBytes)"
vector 360 FanetSybilNormale.host[6].wlan[0].mac.queue queueingTime:vector ETV
attr interpolationmode none
attr source queueingTime(packetPopped)
attr title "queueing times, vector"
attr unit s
vector 361 FanetSybilNormale.host[6].wlan[0].mac sentDownPk:vector(packetBytes) ETV
attr interpolationmode none
attr source packetSentToLower
attr title "packets sent to lower layer, vector(packetBytes)"
vector 362 FanetSybilNormale.attacker[7].wlan[0].mac rcvdPkFromLl:vector(packetBytes) ETV
attr interpolationmode none
attr source packetReceivedFromLower
attr title "packets received from lower layer, vector(packetBytes)"
vector 363 FanetSybilNormale.attacker[7].wlan[0].mac passedUpPk:vector(packetBytes) ETV
attr interpolationmode none
attr source packetSentToUpper
attr title "packets passed to higher layer, vector(packetBytes)"
vector 364 FanetSybilNormale.host[0].wlan[0].mac rcvdPkFromHl:vector(packetBytes) ETV
attr interpolationmode none
attr source packetReceivedFromUpper
attr title "packets received from higher layer, vector(packetBytes)"
vector 365 FanetSybilNormale.host[0].wlan[0].mac.queue packetPushed:vector(packetBytes) ETV
attr interpolationmode none
attr title "packet pushed, vector(packetBytes)"
vector 366 FanetSybilNormale.host[0].wlan[0].mac.queue queueLength:vector ETV
attr interpolationmode sample-hold
attr source "count(packetPushed) - count(packetPopped) - count(packetRemoved) - count(packetDropped)"
attr title "queue length, vector"
vector 367 FanetSybilNormale.host[0].wlan[0].mac.queue packetPopped:vector(packetBytes) ETV
attr interpolationmode none
attr title "packet popped, vector(packetBytes)"
vector 368 FanetSybilNormale.host[0].wlan[0].mac.queue queueingTime:vector ETV
attr interpolationmode none
attr source queueingTime(packetPopped)
attr title "queueing times, vector"
attr unit s
vector 369 FanetSybilNormale.host[0].wlan[0].mac sentDownPk:vector(packetBytes) ETV
attr interpolationmode none
attr source packetSentToLower
attr title "packets sent to lower layer, vector(packetBytes)"
vector 370 FanetSybilNormale.host[24].wlan[0].mac rcvdPkFromHl:vector(packetBytes) ETV
attr interpolationmode none
attr source packetReceivedFromUpper
attr title "packets received from higher layer, vector(packetBytes)"
vector 371 FanetSybilNormale.host[24].wlan[0].mac.queue packetPushed:vector(packetBytes) ETV
attr interpolationmode none
attr title "packet pushed, vector(packetBytes)"
vector 372 FanetSybilNormale.host[24].wlan[0].mac.queue queueLength:vector ETV
attr interpolationmode sample-hold
attr source "count(packetPushed) - count(packetPopped) - count(packetRemoved) - count(packetDropped)"
attr title "queue length, vector"
vector 373 FanetSybilNormale.host[24].wlan[0].mac.queue packetPopped:vector(packetBytes) ETV
attr interpolationmode none
attr title "packet popped, vector(packetBytes)"
vector 374 FanetSybilNormale.host[24].wlan[0].mac.queue queueingTime:vector ETV
attr interpolationmode none
attr source queueingTime(packetPopped)
attr title "queueing times, vector"
attr unit s
vector 375 FanetSybilNormale.host[24].wlan[0].mac sentDownPk:vector(packetBytes) ETV
attr interpolationmode none
attr source packetSentToLower
attr title "packets sent to lower layer, vector(packetBytes)"
vector 376 FanetSybilNormale.host[1].wlan[0].mac rcvdPkFromHl:vector(packetBytes) ETV
attr interpolationmode none
attr source packetReceivedFromUpper
attr title "packets received from higher layer, vector(packetBytes)"
vector 377 FanetSybilNormale.host[1].wlan[0].mac.queue packetPushed:vector(packetBytes) ETV
attr interpolationmode none
attr title "packet pushed, vector(packetBytes)"
vector 378 FanetSybilNormale.host[1].wlan[0].mac.queue queueLength:vector ETV
[...]
365	1953054 19212 7773 610236 10.488135023043 499.200173532735 596 40 1068 583072 620582656
366	1972266 35055 7773 610237 10.488135023043 499.25933375291 1192 0 2 600 604
367	2007321 19211 7773 610237 10.488135023043 499.25933375291 596 40 1068 583072 620582656
368	2026532 18093 7773 610237 10.488135023043 499.25933375291 596 0 0.183255715053 2.353789008535 0.18474216387217
369	2044625 19211 7773 610237 10.488135023043 499.25933375291 596 56 1084 592608 639393536
370	2063836 1407 7998 605861 10.680445637554 495.599825922401 46 40 40 1840 73600
371	2065243 1407 7998 605861 10.680445637554 495.599825922401 46 40 40 1840 73600
372	2066650 2722 7998 605861 10.680445637554 495.599825922401 92 0 1 46 46
373	2069372 1407 7998 605861 10.680445637554 495.599825922401 46 40 40 1840 73600
374	2070779 1361 7998 605861 10.680445637554 495.599825922401 46 0 0 0 0
375	2072140 1407 7998 605861 10.680445637554 495.599825922401 46 56 56 2576 144256
376	2073547 1529 8258 611053 10.928446163889 499.777267694008 50 40 40 2000 80000
377	2075076 1529 8258 611053 10.928446163889 499.777267694008 50 40 40 2000 80000
378	2076605 2958 8258 611053 10.928446163889 499.777267694008 100 0 1 50 50
379	2079563 1529 8258 611053 10.928446163889 499.777267694008 50 40 40 2000 80000
380	2081092 1479 8258 611053 10.928446163889 499.777267694008 50 0 0 0 0
381	2082571 1529 8258 611053 10.928446163889 499.777267694008 50 56 56 2800 156800
382	2084100 3769 8311 609135 10.928469762831 498.599247252232 123 56 56 6888 385728
383	2087869 3769 8311 609135 10.928469762831 498.599247252232 123 40 40 4920 196800
384	2091638 1590 8415 602831 11.027633703779 493.110809267964 52 40 40 2080 83200
385	2093228 1590 8415 602831 11.027633703779 493.110809267964 52 40 40 2080 83200
386	2094818 3076 8415 602831 11.027633703779 493.110809267964 104 0 1 52 52
387	2097894 1590 8415 602831 11.027633703779 493.110809267964 52 40 40 2080 83200
388	2099484 1538 8415 602831 11.027633703779 493.110809267964 52 0 0 0 0
389	2101022 1590 8415 602831 11.027633703779 493.110809267964 52 56 56 2912 163072
390	2102612 1819 8637 609568 11.235636963975 498.858577839566 59 40 1068 12640 11484640
391	2104431 1819 8637 609568 11.235636963975 498.858577839566 59 40 1068 12640 11484640
392	2106250 3480 8637 609568 11.235636963975 498.858577839566 118 0 1 59 59
393	2109730 1819 8637 609568 11.235636963975 498.858577839566 59 40 1068 12640 11484640
394	2111549 1740 8637 609568 11.235636963975 498.858577839566 59 0 0 0 0
395	2113289 1819 8637 609568 11.235636963975 498.858577839566 59 56 1084 13584 11904224
396	2115108 1632 8859 602615 11.458941150922 492.90366321569 53 40 1068 7260 5779920
397	2116740 1632 8859 602615 11.458941150922 492.90366321569 53 40 1068 7260 5779920
398	2118372 3138 8859 602615 11.458941150922 492.90366321569 106 0 1 53 53
399	2121510 1632 8859 602615 11.458941150922 492.90366321569 53 40 1068 7260 5779920
400	2123142 1569 8859 602615 11.458941150922 492.90366321569 53 0 0 0 0
401	2124711 1632 8859 602615 11.458941150922 492.90366321569 53 56 1084 8108 6025808
402	2126343 1590 8987 609689 11.481718765572 498.867992851883 52 40 40 2080 83200
403	2127933 1590 8987 609689 11.481718765572 498.867992851883 52 40 40 2080 83200
404	2129523 3076 8987 609689 11.481718765572 498.867992851883 104 0 1 52 52
405	2132599 1590 8987 609689 11.481718765572 498.867992851883 52 40 40 2080 83200
406	2134189 1538 8987 609689 11.481718765572 498.867992851883 52 0 0 0 0
407	2135727 1590 8987 609689 11.481718765572 498.867992851883 52 56 56 2912 163072
408	2137317 7318 9052 603935 11.481742317683 493.840011842013 238 56 1084 30804 20669008
409	2144635 6758 9052 603935 11.481742317683 493.840011842013 221 40 40 8840 353600
410	2151393 1495 9262 606725 11.788795336615 496.352185453288 49 40 40 1960 78400
411	2152888 1495 9262 606725 11.788795336615 496.352185453288 49 40 40 1960 78400
412	2154383 2892 9262 606725 11.788795336615 496.352185453288 98 0 1 49 49
413	2157275 1495 9262 606725 11.788795336615 496.352185453288 49 40 40 1960 78400
414	2158770 1446 9262 606725 11.788795336615 496.352185453288 49 0 0 0 0
415	2160216 1495 9262 606725 11.788795336615 496.352185453288 49 56 56 2744 153664
416	2161711 1463 9696 603543 12.151893649716 493.678156135137 48 40 40 1920 76800
417	2163174 1463 9696 603543 12.151893649716 493.678156135137 48 40 40 1920 76800
418	2164637 2830 9696 603543 12.151893649716 493.678156135137 96 0 1 48 48
419	2167467 1463 9696 603543 12.151893649716 493.678156135137 48 40 40 1920 76800
420	2168930 1415 9696 603543 12.151893649716 493.678156135137 48 0 0 0 0
421	2170345 1463 9696 603543 12.151893649716 493.678156135137 48 56 56 2688 150528
422	2171808 1375 9854 599766 12.206326515879 490.454958032352 45 40 40 1800 72000
423	2173183 1375 9854 599766 12.206326515879 490.454958032352 45 40 40 1800 72000
424	2174558 2660 9854 599766 12.206326515879 490.454958032352 90 0 1 45 45
425	2177218 1375 9854 599766 12.206326515879 490.454958032352 45 40 40 1800 72000
426	2178593 1330 9854 599766 12.206326515879 490.454958032352 45 0 0 0 0
427	2179923 1375 9854 599766 12.206326515879 490.454958032352 45 56 56 2520 141120
428	2181298 1501 10226 604251 12.781567568891 494.106437223963 49 40 40 1960 78400
429	2182799 1501 10226 604251 12.781567568891 494.106437223963 49 40 40 1960 78400
430	2184300 2904 10226 604251 12.781567568891 494.106437223963 98 0 1 49 49
431	2187204 1501 10226 604251 12.781567568891 494.106437223963 49 40 40 1960 78400
432	2188705 1452 10226 604251 12.781567568891 494.106437223963 49 0 0 0 0
433	2190157 1501 10226 604251 12.781567568891 494.106437223963 49 56 56 2744 153664
434	2191658 1410 10395 593969 12.805291756522 485.949808156583 46 40 40 1840 73600
435	2193068 1410 10395 593969 12.805291756522 485.949808156583 46 40 40 1840 73600
436	2194478 2728 10395 593969 12.805291756522 485.949808156583 92 0 1 46 46
437	2197206 1410 10395 593969 12.805291756522 485.949808156583 46 40 40 1840 73600
438	2198616 1364 10395 593969 12.805291756522 485.949808156583 46 0 0 0 0
439	2199980 1410 10395 593969 12.805291756522 485.949808156583 46 56 56 2576 144256
440	2201390 7606 10448 607061 12.805315061745 496.678262723688 245 56 1084 52784 45301280
441	2208996 6356 10448 607061 12.805315061745 496.678262723688 207 40 40 8280 331200
442	2215352 4028 10452 605553 12.8053155237 495.056799085122 132 56 56 7392 413952
443	2219380 4028 10452 605553 12.8053155237 495.056799085122 132 40 40 5280 211200
444	2223408 1563 10555 605164 12.917250334285 494.882003522943 51 40 40 2040 81600
445	2224971 1563 10555 605164 12.917250334285 494.882003522943 51 40 40 2040 81600
446	2226534 3024 10555 605164 12.917250334285 494.882003522943 102 0 1 51 51
447	2229558 1563 10555 605164 12.917250334285 494.882003522943 51 40 40 2040 81600
448	2231121 1512 10555 605164 12.917250334285 494.882003522943 51 0 0 0 0
449	2232633 1563 10555 605164 12.917250334285 494.882003522943 51 56 56 2856 159936
450	2234196 1501 10680 610937 12.991585638374 499.705452017948 49 40 40 1960 78400
451	2235697 1501 10680 610937 12.991585638374 499.705452017948 49 40 40 1960 78400
452	2237198 2904 10680 610937 12.991585638374 499.705452017948 98 0 1 49 49
453	2240102 1501 10680 610937 12.991585638374 499.705452017948 49 40 40 1960 78400
454	2241603 1452 10680 610937 12.991585638374 499.705452017948 49 0 0 0 0
455	2243055 1501 10680 610937 12.991585638374 499.705452017948 49 56 56 2744 153664
456	2244556 6529 10733 610571 12.991609044958 499.363645828797 211 56 1084 32376 24100096
457	2251085 5870 10733 610571 12.991609044958 499.363645828797 191 40 40 7640 305600
458	2256955 1437 10837 596319 13.009107524995 487.612282384651 47 40 40 1880 75200
459	2258392 1437 10837 596319 13.009107524995 487.612282384651 47 40 40 1880 75200
460	2259829 2780 10837 596319 13.009107524995 487.612282384651 94 0 1 47 47
461	2262609 1437 10837 596319 13.009107524995 487.612282384651 47 40 40 1880 75200
462	2264046 1390 10837 596319 13.009107524995 487.612282384651 47 0 0 0 0
463	2265436 1437 10837 596319 13.009107524995 487.612282384651 47 56 56 2632 147392
464	2266873 1622 11012 603264 13.121687264647 493.562666585199 53 40 40 2120 84800
465	2268495 1622 11012 603264 13.121687264647 493.562666585199 53 40 40 2120 84800
466	2270117 3138 11012 603264 13.121687264647 493.562666585199 106 0 1 53 53
467	2273255 1622 11012 603264 13.121687264647 493.562666585199 53 40 40 2120 84800
468	2274877 1569 11012 603264 13.121687264647 493.562666585199 53 0 0 0 0
469	2276446 1622 11012 603264 13.121687264647 493.562666585199 53 56 56 2968 166208
470	2278068 5478 11065 609859 13.121710513825 498.882216451678 178 56 56 9968 558208
471	2283546 5478 11065 609859 13.121710513825 498.882216451678 178 40 40 7120 284800
472	2289024 1527 11219 607739 13.326198428404 497.461191162004 50 40 40 2000 80000
473	2290551 1527 11219 607739 13.326198428404 497.461191162004 50 40 40 2000 80000
474	2292078 2954 11219 607739 13.326198428404 497.461191162004 100 0 1 50 50
475	2295032 1527 11219 607739 13.326198428404 497.461191162004 50 40 40 2000 80000
476	2296559 1477 11219 607739 13.326198428404 497.461191162004 50 0 0 0 0
477	2298036 1527 11219 607739 13.326198428404 497.461191162004 50 56 56 2800 156800
478	2299563 1562 11347 605327 13.360787688289 494.935169685631 51 40 40 2040 81600
479	2301125 1562 11347 605327 13.360787688289 494.935169685631 51 40 40 2040 81600
480	2302687 3022 11347 605327 13.360787688289 494.935169685631 102 0 1 51 51
481	2305709 1562 11347 605327 13.360787688289 494.935169685631 51 40 40 2040 81600
482	2307271 1511 11347 605327 13.360787688289 494.935169685631 51 0 0 0 0
483	2308782 1562 11347 605327 13.360787688289 494.935169685631 51 56 56 2856 159936
484	2310344 1621 11510 602945 13.442657440901 493.140016060787 53 40 40 2120 84800
485	2311965 1621 11510 602945 13.442657440901 493.140016060787 53 40 40 2120 84800
486	2313586 3136 11510 602945 13.442657440901 493.140016060787 106 0 1 53 53
487	2316722 1621 11510 602945 13.442657440901 493.140016060787 53 40 40 2120 84800
488	2318343 1568 11510 602945 13.442657440901 493.140016060787 53 0 0 0 0
489	2319911 1621 11510 602945 13.442657440901 493.140016060787 53 56 56 2968 166208
490	2321532 1405 11635 598200 13.472517372575 489.176391670478 46 40 40 1840 73600
491	2322937 1405 11635 598200 13.472517372575 489.176391670478 46 40 40 1840 73600
492	2324342 2718 11635 598200 13.472517372575 489.176391670478 92 0 1 46 46
493	2327060 1405 11635 598200 13.472517372575 489.176391670478 46 40 40 1840 73600
494	2328465 1359 11635 598200 13.472517372575 489.176391670478 46 0 0 0 0
495	2329824 1405 11635 598200 13.472517372575 489.176391670478 46 56 56 2576 144256
496	2331229 1595 11795 604642 13.579456198495 494.280905635097 52 40 40 2080 83200
497	2332824 1595 11795 604642 13.579456198495 494.280905635097 52 40 40 2080 83200
498	2334419 3086 11795 604642 13.579456198495 494.280905635097 104 0 1 52 52
499	2337505 1595 11795 604642 13.579456198495 494.280905635097 52 40 40 2080 83200
500	2339100 1543 11795 604642 13.579456198495 494.280905635097 52 0 0 0 0
501	2340643 1595 11795 604642 13.579456198495 494.280905635097 52 56 56 2912 163072
502	2342238 1437 12017 600550 13.700121452566 491.143689164892 47 40 40 1880 75200
503	2343675 1437 12017 600550 13.700121452566 491.143689164892 47 40 40 1880 75200
504	2345112 2780 12017 600550 13.700121452566 491.143689164892 94 0 1 47 47
505	2347892 1437 12017 600550 13.700121452566 491.143689164892 47 40 40 1880 75200
506	2349329 1390 12017 600550 13.700121452566 491.143689164892 47 0 0 0 0
507	2350719 1437 12017 600550 13.700121452566 491.143689164892 47 56 56 2632 147392
508	2352156 6578 12070 608926 13.700145265085 498.367042303799 213 56 1084 31460 22934448
509	2358734 5953 12070 608926 13.700145265085 498.367042303799 194 40 40 7760 310400
510	2364687 1501 12123 610344 13.700872510672 499.274431094525 49 40 40 1960 78400
511	2366188 1501 12123 610344 13.700872510672 499.274431094525 49 40 40 1960 78400
512	2367689 2904 12123 610344 13.700872510672 499.274431094525 98 0 1 49 49
513	2370593 1501 12123 610344 13.700872510672 499.274431094525 49 40 40 1960 78400
514	2372094 1452 12123 610344 13.700872510672 499.274431094525 49 0 0 0 0
515	2373546 1501 12123 610344 13.700872510672 499.274431094525 49 56 56 2744 153664
516	2375047 1465 12343 603377 13.917730017565 493.587366987486 48 40 40 1920 76800
517	2376512 1465 12343 603377 13.917730017565 493.587366987486 48 40 40 1920 76800
518	2377977 2834 12343 603377 13.917730017565 493.587366987486 96 0 1 48 48
519	2380811 1465 12343 603377 13.917730017565 493.587366987486 48 40 40 1920 76800
520	2382276 1417 12343 603377 13.917730017565 493.587366987486 48 0 0 0 0
521	2383693 1465 12343 603377 13.917730017565 493.587366987486 48 56 56 2688 150528
522	2385158 10183 12396 606778 13.917753300384 496.352208562961 327 56 1084 87188 79544112
523	2395341 7980 12396 606778 13.917753300384 496.352208562961 260 40 40 10400 416000
524	2403321 1403 12710 594856 14.255966332275 486.539542751853 46 40 40 1840 73600
525	2404724 1403 12710 594856 14.255966332275 486.539542751853 46 40 40 1840 73600
526	2406127 2714 12710 594856 14.255966332275 486.539542751853 92 0 1 46 46
527	2408841 1403 12710 594856 14.255966332275 486.539542751853 46 40 40 1840 73600
528	2410244 1357 12710 594856 14.255966332275 486.539542751853 46 0 0 0 0
529	2411601 1403 12710 594856 14.255966332275 486.539542751853 46 56 56 2576 144256
530	2413004 1468 12967 606553 14.571551543195 496.224751700643 48 40 40 1920 76800
531	2414472 1468 12967 606553 14.571551543195 496.224751700643 48 40 40 1920 76800
532	2415940 2840 12967 606553 14.571551543195 496.224751700643 96 0 1 48 48
533	2418780 1468 12967 606553 14.571551543195 496.224751700643 48 40 40 1920 76800
534	2420248 1420 12967 606553 14.571551543195 496.224751700643 48 0 0 0 0
535	2421668 1468 12967 606553 14.571551543195 496.224751700643 48 56 56 2688 150528
536	2423136 1563 13139 604094 14.636627640575 494.014415948184 51 40 40 2040 81600
537	2424699 1563 13139 604094 14.636627640575 494.014415948184 51 40 40 2040 81600
538	2426262 3024 13139 604094 14.636627640575 494.014415948184 102 0 1 51 51
539	2429286 1563 13139 604094 14.636627640575 494.014415948184 51 40 40 2040 81600
540	2430849 1512 13139 604094 14.636627640575 494.014415948184 51 0 0 0 0
541	2432361 1563 13139 604094 14.636627640575 494.014415948184 51 56 56 2856 159936
542	2433924 1559 13296 606988 14.786183428951 496.678238781172 51 40 40 2040 81600
543	2435483 1559 13296 606988 14.786183428951 496.678238781172 51 40 40 2040 81600
544	2437042 3016 13296 606988 14.786183428951 496.678238781172 102 0 1 51 51
545	2440058 1559 13296 606988 14.786183428951 496.678238781172 51 40 40 2040 81600
546	2441617 1508 13296 606988 14.786183428951 496.678238781172 51 0 0 0 0
547	2443125 1559 13296 606988 14.786183428951 496.678238781172 51 56 56 2856 159936
548	2444684 15762 13626 610233 15 499.200173532735 484 1000 1000 484000 484000000
549	2460446 15762 13678 610234 15 499.200173532735 484 1008 1008 487872 491774976
550	2476208 2255 13733 441846 15.000365535689 358.845145858987 71 1084 1084 76964 83428976
551	2478463 3477 13735 442784 15.000365935961 360.019255406743 108 1084 1084 117072 126906048
552	2481940 6655 13737 569146 15.000366192605 464.375891956352 205 1084 1084 222220 240886480
553	2488595 3566 13739 378070 15.000366219831 308.660838830853 110 1084 1084 119240 129256160
554	2492161 866 13741 52989 15.000366485819 48.220407371703 28 1084 1084 30352 32901568
555	2493027 4304 13743 434631 15.000366570824 353.738789841322 133 1084 1084 144172 156282448
556	2497331 31 13745 13745 15.000366596527 15.000366596527 1 1084 1084 1084 1175056
557	2497362 2367 18063 339675 19.454863476962 276.159713145633 74 1084 1084 80216 86954144
558	2499729 4475 20902 513806 21.664301166842 418.375259890102 142 1084 1084 153928 166857952
559	2504204 1561 53086 457093 48.220773324712 371.648940630155 48 1084 1084 52032 56402688
560	2505765 1417 53088 424563 48.220773360932 343.90252839572 44 1084 1084 47696 51702464
561	2507182 8870 68092 611002 60.502945162594 499.70547600374 282 56 1084 110368 108700992
562	2516052 5844 68092 611002 60.502945162594 499.70547600374 190 40 40 7600 304000
563	2521896 2187 68695 348142 60.65762874425 283.200420818371 68 1084 1084 73712 79903808
564	2524083 5182 74403 390767 65.442063374249 318.116603299835 162 1084 1084 175608 190359072
565	2529265 3118 74405 476329 65.442063376834 387.702187243783 99 1084 1084 107316 116330544
566	2532383 2126 74407 95793 65.442063385658 71.953457442904 69 1084 1084 74796 81078864
567	2534509 124 80701 95798 65.453054706962 71.953457669155 4 1068 1068 4272 4562496
568	2534633 116 80705 95800 65.453054706962 71.953457669155 4 96 96 384 36864
569	2534749 116 80705 95800 65.453054706962 71.953457669155 4 96 96 384 36864
570	2534865 2723 87412 207675 67.981645767553 165.594878144569 84 1084 1084 91056 98704704
571	2537588 2867 99473 411617 74.924261844975 335.162969977603 88 1084 1084 95392 103404928
572	2540455 3026 138497 424565 107.276383430693 343.902528413503 92 1084 1084 99728 108105152
573	2543481 822 139404 424559 108.144353408675 343.902527836827 25 1084 1084 27100 29376400
574	2544303 1613 140724 427614 109.155122551483 347.44345014144 49 1008 1008 49392 49787136
575	2545916 1506 140724 427614 109.155122551483 347.44345014144 49 1 49 1225 40425
576	2547422 1613 140725 427615 109.155122551483 347.44345014144 49 1000 1000 49000 49000000
577	2549035 93086 140725 611317 0.1 500 5000 0 160000 3920000 364800000000
578	2642121 2095 140725 427615 109.155122551483 347.44345014144 49 0.000365874152 0.001098792438 0.023439892553 1.3682474709608e-05
579	2644216 1553 140725 427615 109.155122551483 347.44345014144 49 89 315 7942 1659360
580	2645769 854 157643 190212 123.113245146995 150.316113955731 26 1084 1084 28184 30551456
581	2646623 1050 190214 227511 150.316114022005 181.886423123615 32 1084 1084 34688 37601792
582	2647673 2103 195127 520304 154.808638727514 423.517884212342 64 1084 1084 69376 75203584
583	2649776 1117 196735 537198 156.265448372597 438.071433730138 34 1084 1084 36856 39951904
584	2650893 5856 207673 610294 165.594878136325 499.259700173018 178 1084 1084 192952 209159968
585	2656749 3815 216681 599404 173.024221106735 490.084607563831 116 1084 1084 125744 136306496
586	2660564 1250 216683 545912 173.024221172525 446.063494744259 38 1084 1084 41192 44652128
587	2661814 1445 252115 302500 202.213239196669 243.740995836501 44 1084 1084 47696 51702464
588	2663259 1577 272585 333872 218.930568624608 270.951844528342 48 1084 1084 52032 56402688
589	2664836 1677 275257 431935 221.00886153155 351.137355242637 51 1084 1084 55284 59927856
590	2666513 692 339233 370316 275.914243029001 301.978849420577 21 1084 1084 22764 24676176
591	2667205 1083 339243 382052 275.914243761555 311.496824396834 33 1084 1084 35772 38776848
592	2668288 592 346644 373428 281.873097335721 304.619592846914 18 1084 1084 19512 21151008
593	2668880 165 394753 399570 321.916442144452 325.766742418322 5 1084 1084 5420 5875280
594	2669045 5237 398999 610290 325.542227875354 499.259699598021 159 1084 1084 172356 186833904
595	2674282 659 399001 417753 325.542227897487 339.389683492538 20 1084 1084 21680 23501120
596	2674941 2566 399675 520306 325.767108699793 423.517884258143 78 1084 1084 84552 91654368
597	2677507 198 406997 411615 331.814471340276 335.162969848711 6 1084 1084 6504 7050336
598	2677705 2203 446686 506162 363.374379722586 411.548987529029 67 1084 1084 72628 78728752
599	2679908 1021 446690 474984 363.374379819253 386.693347185253 31 1084 1084 33604 36426736
600	2680929 4443 455674 610292 370.266019782916 499.259699776059 135 1084 1084 146340 158632560
601	2685372 625 497667 522409 405.258059165977 425.80152749219 19 1084 1084 20596 22326064
602	2685997 560 510718 541276 415.260184436176 441.947618380818 17 1084 1084 18428 19975952
603	2686557 92902 611317 611317 0.1 500 5000 0 0 0 0

