version 2
run SybilAttackNormale-0-20220530-17:41:36-71253
attr configname SybilAttackNormale
attr datetime 20220530-17:41:36
attr experiment SybilAttackNormale
attr inifile omnetpp.ini
attr iterationvars ""
attr iterationvarsf ""
attr measurement ""
attr network FanetSybilNormale
attr processid 71253
attr repetition 0
attr replication #0
attr resultdir results
attr runnumber 0
attr seedset 0
param *.attacker[*].mobility.typename "\"MassMobility\""
param *.attacker[*].mobility.changeInterval 1s
param *.attacker[*].mobility.initialMovementHeading "uniform(0deg, 360deg)"
param *.attacker[*].mobility.initialMovementElevation "uniform(-90deg, 90deg)"
param *.attacker[*].mobility.angleDelta uniform(-10deg,10deg)
param *.attacker[*].mobility.rotationAxisAngle uniform(-10deg,10deg)
param *.attacker[*].mobility.speed uniform(10mps,20mps)
param *.attacker[*].mobility.faceForward false
param *.attacker*.wlan[0].typename "\"AckingWirelessInterface\""
param *.attacker*.wlan[0].radio.transmitter.communicationRange 400m
param *.attacker*.wlan[0].radio.displayCommunicationRange true
param *.host[0].numApps 1
param *.host[0].app[0].typename "\"UdpBasicApp\""
param *.host[0].app[0].startTime 15s
param *.host[0].app[0].destAddresses "\"host[15]\""
param *.host[0].app[0].destPort 5000
param *.host[0].app[0].messageLength 1000B
param *.host[0].app[0].sendInterval exponential(1s)
param *.host[0].app[0].packetName "\"UDPdata\""
param *.host[15].numApps 1
param *.host[15].app[0].typename "\"UdpSink\""
param *.host[15].app[0].localPort 5000
param **.wlan[*].bitrate 24Mbps
param *.configurator.addStaticRoutes false
param **.netmaskRoutes "\"\""
param **.arp.typename "\"GlobalArp\""
param *.host*.wlan[0].typename "\"AckingWirelessInterface\""
param *.host*.wlan[0].radio.transmitter.communicationRange 400m
param *.host*.wlan[0].radio.displayCommunicationRange true
param *.visualizer.osgVisualizer.typename "\"IntegratedOsgVisualizer\""
param *.visualizer.osgVisualizer.sceneVisualizer.clearColor "\"skyblue\""
param *.visualizer.osgVisualizer.sceneVisualizer.sceneImage "\"showcases/desert\""
param *.visualizer.osgVisualizer.sceneVisualizer.sceneImageSize 5000m
param *.visualizer.osgVisualizer.sceneVisualizer.axisLength 1000m
param *.visualizer.osgVisualizer.sceneVisualizer.sceneMinX -2000m
param *.visualizer.osgVisualizer.sceneVisualizer.sceneMinY -2000m
param *.visualizer.osgVisualizer.sceneVisualizer.sceneMinZ 0m
param *.visualizer.osgVisualizer.sceneVisualizer.sceneMaxX 3000m
param *.visualizer.osgVisualizer.sceneVisualizer.sceneMaxY 3000m
param *.visualizer.osgVisualizer.sceneVisualizer.sceneMaxZ 1000m
param *.visualizer.osgVisualizer.networkNodeVisualizer.displayModuleName false
param *.visualizer.*.mobilityVisualizer.displayMobility true
param *.visualizer.*.mobilityVisualizer.displayPositions true
param *.visualizer.*.mobilityVisualizer.displayOrientations true
param *.visualizer.*.mobilityVisualizer.displayVelocities true
param *.visualizer.*.mobilityVisualizer.displayMovementTrails true
param *.visualizer.*.mobilityVisualizer.animationSpeed 1
param *.visualizer.*.packetDropVisualizer.displayPacketDrops false
param *.visualizer.*.packetDropVisualizer.labelFormat "\"%n/reason: %r\""
param *.visualizer.*.packetDropVisualizer.fadeOutTime 10s
param **.constraintAreaMinX 0m
param **.constraintAreaMinY 0m
param **.constraintAreaMinZ 40m
param **.constraintAreaMaxX 2500m
param **.constraintAreaMaxY 2000m
param **.constraintAreaMaxZ 200m
param *.visualizer.*.mediumVisualizer.signalPropagationAnimationSpeed 500/3e8
param *.visualizer.*.mediumVisualizer.signalTransmissionAnimationSpeed 50000/3e8
param *.visualizer.*.mediumVisualizer.displaySignals false
param *.visualizer.*.mediumVisualizer.displayTransmissions false
param *.visualizer.*.mediumVisualizer.displayReceptions false
param *.visualizer.*.mediumVisualizer.transmissionPlacementPriority 10
param *.visualizer.*.mediumVisualizer.receptionPlacementPriority 10
param *.visualizer.*.mediumVisualizer.displaySignals false
param *.visualizer.*.mediumVisualizer.signalFadingDistance 50m
param *.visualizer.*.mediumVisualizer.signalRingSize 50m
param *.visualizer.osgVisualizer.mediumVisualizer.signalShape "\"both\""
param *.host[*].osgModel "\"3d/drone.ive.100.scale.0,0,90.rot\""
param *.host[*].mobility.typename "\"MassMobility\""
param *.host[*].mobility.changeInterval 1s
param *.host[*].mobility.initialMovementHeading "uniform(0deg, 360deg)"
param *.host[*].mobility.initialMovementElevation "uniform(-90deg, 90deg)"
param *.host[*].mobility.angleDelta uniform(-10deg,10deg)
param *.host[*].mobility.rotationAxisAngle uniform(-10deg,10deg)
param *.host[*].mobility.speed uniform(10mps,20mps)
param *.host[*].mobility.faceForward false

vector 0 FanetSybilNormale.host[0].wlan[0].radio radioMode:vector ETV
attr interpolationmode sample-hold
attr source radioModeChanged
attr title "Radio mode, vector"
vector 1 FanetSybilNormale.host[1].wlan[0].radio radioMode:vector ETV
attr interpolationmode sample-hold
attr source radioModeChanged
attr title "Radio mode, vector"
vector 2 FanetSybilNormale.host[2].wlan[0].radio radioMode:vector ETV
attr interpolationmode sample-hold
attr source radioModeChanged
attr title "Radio mode, vector"
vector 3 FanetSybilNormale.host[3].wlan[0].radio radioMode:vector ETV
attr interpolationmode sample-hold
attr source radioModeChanged
attr title "Radio mode, vector"
vector 4 FanetSybilNormale.host[4].wlan[0].radio radioMode:vector ETV
attr interpolationmode sample-hold
attr source radioModeChanged
attr title "Radio mode, vector"
vector 5 FanetSybilNormale.host[5].wlan[0].radio radioMode:vector ETV
attr interpolationmode sample-hold
attr source radioModeChanged
attr title "Radio mode, vector"
vector 6 FanetSybilNormale.host[6].wlan[0].radio radioMode:vector ETV
attr interpolationmode sample-hold
attr source radioModeChanged
attr title "Radio mode, vector"
vector 7 FanetSybilNormale.host[7].wlan[0].radio radioMode:vector ETV
attr interpolationmode sample-hold
attr source radioModeChanged
attr title "Radio mode, vector"
vector 8 FanetSybilNormale.host[8].wlan[0].radio radioMode:vector ETV
attr interpolationmode sample-hold
attr source radioModeChanged
attr title "Radio mode, vector"
vector 9 FanetSybilNormale.host[9].wlan[0].radio radioMode:vector ETV
attr interpolationmode sample-hold
attr source radioModeChanged
attr title "Radio mode, vector"
vector 10 FanetSybilNormale.host[10].wlan[0].radio radioMode:vector ETV
attr interpolationmode sample-hold
attr source radioModeChanged
attr title "Radio mode, vector"
vector 11 FanetSybilNormale.host[11].wlan[0].radio radioMode:vector ETV
attr interpolationmode sample-hold
attr source radioModeChanged
attr title "Radio mode, vector"
vector 12 FanetSybilNormale.host[12].wlan[0].radio radioMode:vector ETV
attr interpolationmode sample-hold
attr source radioModeChanged
attr title "Radio mode, vector"
vector 13 FanetSybilNormale.host[13].wlan[0].radio radioMode:vector ETV
attr interpolationmode sample-hold
attr source radioModeChanged
attr title "Radio mode, vector"
vector 14 FanetSybilNormale.host[14].wlan[0].radio radioMode:vector ETV
attr interpolationmode sample-hold
attr source radioModeChanged
attr title "Radio mode, vector"
vector 15 FanetSybilNormale.host[15].wlan[0].radio radioMode:vector ETV
attr interpolationmode sample-hold
attr source radioModeChanged
attr title "Radio mode, vector"
vector 16 FanetSybilNormale.host[16].wlan[0].radio radioMode:vector ETV
attr interpolationmode sample-hold
attr source radioModeChanged
attr title "Radio mode, vector"
vector 17 FanetSybilNormale.host[17].wlan[0].radio radioMode:vector ETV
attr interpolationmode sample-hold
attr source radioModeChanged
attr title "Radio mode, vector"
vector 18 FanetSybilNormale.host[18].wlan[0].radio radioMode:vector ETV
attr interpolationmode sample-hold
attr source radioModeChanged
attr title "Radio mode, vector"
vector 19 FanetSybilNormale.host[19].wlan[0].radio radioMode:vector ETV
attr interpolationmode sample-hold
attr source radioModeChanged
attr title "Radio mode, vector"
vector 20 FanetSybilNormale.host[20].wlan[0].radio radioMode:vector ETV
attr interpolationmode sample-hold
attr source radioModeChanged
attr title "Radio mode, vector"
vector 21 FanetSybilNormale.host[21].wlan[0].radio radioMode:vector ETV
attr interpolationmode sample-hold
attr source radioModeChanged
attr title "Radio mode, vector"
vector 22 FanetSybilNormale.host[22].wlan[0].radio radioMode:vector ETV
attr interpolationmode sample-hold
attr source radioModeChanged
attr title "Radio mode, vector"
vector 23 FanetSybilNormale.host[23].wlan[0].radio radioMode:vector ETV
attr interpolationmode sample-hold
attr source radioModeChanged
attr title "Radio mode, vector"
vector 24 FanetSybilNormale.host[24].wlan[0].radio radioMode:vector ETV
attr interpolationmode sample-hold
attr source radioModeChanged
attr title "Radio mode, vector"
vector 25 FanetSybilNormale.host[25].wlan[0].radio radioMode:vector ETV
attr interpolationmode sample-hold
attr source radioModeChanged
attr title "Radio mode, vector"
vector 26 FanetSybilNormale.host[26].wlan[0].radio radioMode:vector ETV
attr interpolationmode sample-hold
attr source radioModeChanged
attr title "Radio mode, vector"
vector 27 FanetSybilNormale.host[27].wlan[0].radio radioMode:vector ETV
attr interpolationmode sample-hold
attr source radioModeChanged
attr title "Radio mode, vector"
vector 28 FanetSybilNormale.host[28].wlan[0].radio radioMode:vector ETV
attr interpolationmode sample-hold
attr source radioModeChanged
attr title "Radio mode, vector"
vector 29 FanetSybilNormale.host[29].wlan[0].radio radioMode:vector ETV
attr interpolationmode sample-hold
attr source radioModeChanged
attr title "Radio mode, vector"
vector 30 FanetSybilNormale.attacker[0].wlan[0].radio radioMode:vector ETV
attr interpolationmode sample-hold
attr source radioModeChanged
attr title "Radio mode, vector"
vector 31 FanetSybilNormale.attacker[1].wlan[0].radio radioMode:vector ETV
attr interpolationmode sample-hold
attr source radioModeChanged
attr title "Radio mode, vector"
vector 32 FanetSybilNormale.attacker[2].wlan[0].radio radioMode:vector ETV
attr interpolationmode sample-hold
attr source radioModeChanged
attr title "Radio mode, vector"
vector 33 FanetSybilNormale.attacker[3].wlan[0].radio radioMode:vector ETV
attr interpolationmode sample-hold
attr source radioModeChanged
attr title "Radio mode, vector"
vector 34 FanetSybilNormale.attacker[4].wlan[0].radio radioMode:vector ETV
attr interpolationmode sample-hold
attr source radioModeChanged
attr title "Radio mode, vector"
vector 35 FanetSybilNormale.attacker[5].wlan[0].radio radioMode:vector ETV
attr interpolationmode sample-hold
attr source radioModeChanged
attr title "Radio mode, vector"
vector 36 FanetSybilNormale.attacker[6].wlan[0].radio radioMode:vector ETV
attr interpolationmode sample-hold
attr source radioModeChanged
attr title "Radio mode, vector"
vector 37 FanetSybilNormale.attacker[7].wlan[0].radio radioMode:vector ETV
attr interpolationmode sample-hold
attr source radioModeChanged
attr title "Radio mode, vector"
vector 38 FanetSybilNormale.attacker[8].wlan[0].radio radioMode:vector ETV
attr interpolationmode sample-hold
attr source radioModeChanged
attr title "Radio mode, vector"
vector 39 FanetSybilNormale.attacker[9].wlan[0].radio radioMode:vector ETV
attr interpolationmode sample-hold
attr source radioModeChanged
attr title "Radio mode, vector"
vector 40 FanetSybilNormale.attacker[10].wlan[0].radio radioMode:vector ETV
attr interpolationmode sample-hold
attr source radioModeChanged
attr title "Radio mode, vector"
vector 41 FanetSybilNormale.attacker[11].wlan[0].radio radioMode:vector ETV
attr interpolationmode sample-hold
attr source radioModeChanged
attr title "Radio mode, vector"
vector 42 FanetSybilNormale.attacker[12].wlan[0].radio radioMode:vector ETV
attr interpolationmode sample-hold
attr source radioModeChanged
attr title "Radio mode, vector"
vector 43 FanetSybilNormale.attacker[13].wlan[0].radio radioMode:vector ETV
attr interpolationmode sample-hold
attr source radioModeChanged
attr title "Radio mode, vector"
vector 44 FanetSybilNormale.attacker[14].wlan[0].radio radioMode:vector ETV
attr interpolationmode sample-hold
attr source radioModeChanged
attr title "Radio mode, vector"
vector 45 FanetSybilNormale.attacker[15].wlan[0].radio radioMode:vector ETV
attr interpolationmode sample-hold
attr source radioModeChanged
attr title "Radio mode, vector"
vector 46 FanetSybilNormale.attacker[16].wlan[0].radio radioMode:vector ETV
attr interpolationmode sample-hold
attr source radioModeChanged
attr title "Radio mode, vector"
vector 47 FanetSybilNormale.attacker[17].wlan[0].radio radioMode:vector ETV
attr interpolationmode sample-hold
attr source radioModeChanged
attr title "Radio mode, vector"
vector 48 FanetSybilNormale.attacker[18].wlan[0].radio radioMode:vector ETV
attr interpolationmode sample-hold
attr source radioModeChanged
attr title "Radio mode, vector"
vector 49 FanetSybilNormale.attacker[19].wlan[0].radio radioMode:vector ETV
attr interpolationmode sample-hold
attr source radioModeChanged
attr title "Radio mode, vector"
vector 50 FanetSybilNormale.host[0].wlan[0].radio receptionState:vector ETV
attr interpolationmode sample-hold
attr source receptionStateChanged
attr title "Radio reception state, vector"
vector 51 FanetSybilNormale.host[0].wlan[0].radio transmissionState:vector ETV
attr interpolationmode sample-hold
attr source transmissionStateChanged
attr title "Radio transmission state, vector"
vector 52 FanetSybilNormale.host[1].wlan[0].radio receptionState:vector ETV
attr interpolationmode sample-hold
attr source receptionStateChanged
attr title "Radio reception state, vector"
vector 53 FanetSybilNormale.host[1].wlan[0].radio transmissionState:vector ETV
attr interpolationmode sample-hold
attr source transmissionStateChanged
attr title "Radio transmission state, vector"
vector 54 FanetSybilNormale.host[2].wlan[0].radio receptionState:vector ETV
attr interpolationmode sample-hold
attr source receptionStateChanged
attr title "Radio reception state, vector"
vector 55 FanetSybilNormale.host[2].wlan[0].radio transmissionState:vector ETV
attr interpolationmode sample-hold
attr source transmissionStateChanged
attr title "Radio transmission state, vector"
vector 56 FanetSybilNormale.host[3].wlan[0].radio receptionState:vector ETV
attr interpolationmode sample-hold
attr source receptionStateChanged
attr title "Radio reception state, vector"
vector 57 FanetSybilNormale.host[3].wlan[0].radio transmissionState:vector ETV
attr interpolationmode sample-hold
attr source transmissionStateChanged
attr title "Radio transmission state, vector"
vector 58 FanetSybilNormale.host[4].wlan[0].radio receptionState:vector ETV
attr interpolationmode sample-hold
attr source receptionStateChanged
attr title "Radio reception state, vector"
vector 59 FanetSybilNormale.host[4].wlan[0].radio transmissionState:vector ETV
attr interpolationmode sample-hold
attr source transmissionStateChanged
attr title "Radio transmission state, vector"
vector 60 FanetSybilNormale.host[5].wlan[0].radio receptionState:vector ETV
attr interpolationmode sample-hold
attr source receptionStateChanged
attr title "Radio reception state, vector"
vector 61 FanetSybilNormale.host[5].wlan[0].radio transmissionState:vector ETV
attr interpolationmode sample-hold
attr source transmissionStateChanged
attr title "Radio transmission state, vector"
vector 62 FanetSybilNormale.host[6].wlan[0].radio receptionState:vector ETV
attr interpolationmode sample-hold
attr source receptionStateChanged
attr title "Radio reception state, vector"
vector 63 FanetSybilNormale.host[6].wlan[0].radio transmissionState:vector ETV
attr interpolationmode sample-hold
attr source transmissionStateChanged
attr title "Radio transmission state, vector"
vector 64 FanetSybilNormale.host[7].wlan[0].radio receptionState:vector ETV
attr interpolationmode sample-hold
attr source receptionStateChanged
attr title "Radio reception state, vector"
vector 65 FanetSybilNormale.host[7].wlan[0].radio transmissionState:vector ETV
attr interpolationmode sample-hold
attr source transmissionStateChanged
attr title "Radio transmission state, vector"
vector 66 FanetSybilNormale.host[8].wlan[0].radio receptionState:vector ETV
attr interpolationmode sample-hold
attr source receptionStateChanged
attr title "Radio reception state, vector"
vector 67 FanetSybilNormale.host[8].wlan[0].radio transmissionState:vector ETV
attr interpolationmode sample-hold
attr source transmissionStateChanged
attr title "Radio transmission state, vector"
vector 68 FanetSybilNormale.host[9].wlan[0].radio receptionState:vector ETV
attr interpolationmode sample-hold
attr source receptionStateChanged
attr title "Radio reception state, vector"
vector 69 FanetSybilNormale.host[9].wlan[0].radio transmissionState:vector ETV
attr interpolationmode sample-hold
attr source transmissionStateChanged
attr title "Radio transmission state, vector"
vector 70 FanetSybilNormale.host[10].wlan[0].radio receptionState:vector ETV
attr interpolationmode sample-hold
attr source receptionStateChanged
attr title "Radio reception state, vector"
vector 71 FanetSybilNormale.host[10].wlan[0].radio transmissionState:vector ETV
attr interpolationmode sample-hold
attr source transmissionStateChanged
attr title "Radio transmission state, vector"
vector 72 FanetSybilNormale.host[11].wlan[0].radio receptionState:vector ETV
attr interpolationmode sample-hold
attr source receptionStateChanged
attr title "Radio reception state, vector"
vector 73 FanetSybilNormale.host[11].wlan[0].radio transmissionState:vector ETV
attr interpolationmode sample-hold
attr source transmissionStateChanged
attr title "Radio transmission state, vector"
vector 74 FanetSybilNormale.host[12].wlan[0].radio receptionState:vector ETV
attr interpolationmode sample-hold
attr source receptionStateChanged
attr title "Radio reception state, vector"
vector 75 FanetSybilNormale.host[12].wlan[0].radio transmissionState:vector ETV
attr interpolationmode sample-hold
attr source transmissionStateChanged
attr title "Radio transmission state, vector"
vector 76 FanetSybilNormale.host[13].wlan[0].radio receptionState:vector ETV
attr interpolationmode sample-hold
attr source receptionStateChanged
attr title "Radio reception state, vector"
vector 77 FanetSybilNormale.host[13].wlan[0].radio transmissionState:vector ETV
attr interpolationmode sample-hold
attr source transmissionStateChanged
attr title "Radio transmission state, vector"
vector 78 FanetSybilNormale.host[14].wlan[0].radio receptionState:vector ETV
attr interpolationmode sample-hold
attr source receptionStateChanged
attr title "Radio reception state, vector"
vector 79 FanetSybilNormale.host[14].wlan[0].radio transmissionState:vector ETV
attr interpolationmode sample-hold
attr source transmissionStateChanged
attr title "Radio transmission state, vector"
vector 80 FanetSybilNormale.host[15].wlan[0].radio receptionState:vector ETV
attr interpolationmode sample-hold
attr source receptionStateChanged
attr title "Radio reception state, vector"
vector 81 FanetSybilNormale.host[15].wlan[0].radio transmissionState:vector ETV
attr interpolationmode sample-hold
attr source transmissionStateChanged
attr title "Radio transmission state, vector"
vector 82 FanetSybilNormale.host[16].wlan[0].radio receptionState:vector ETV
attr interpolationmode sample-hold
attr source receptionStateChanged
attr title "Radio reception state, vector"
vector 83 FanetSybilNormale.host[16].wlan[0].radio transmissionState:vector ETV
attr interpolationmode sample-hold
attr source transmissionStateChanged
attr title "Radio transmission state, vector"
vector 84 FanetSybilNormale.host[17].wlan[0].radio receptionState:vector ETV
attr interpolationmode sample-hold
attr source receptionStateChanged
attr title "Radio reception state, vector"
vector 85 FanetSybilNormale.host[17].wlan[0].radio transmissionState:vector ETV
attr interpolationmode sample-hold
attr source transmissionStateChanged
attr title "Radio transmission state, vector"
vector 86 FanetSybilNormale.host[18].wlan[0].radio receptionState:vector ETV
attr interpolationmode sample-hold
attr source receptionStateChanged
attr title "Radio reception state, vector"
vector 87 FanetSybilNormale.host[18].wlan[0].radio transmissionState:vector ETV
attr interpolationmode sample-hold
attr source transmissionStateChanged
attr title "Radio transmission state, vector"
vector 88 FanetSybilNormale.host[19].wlan[0].radio receptionState:vector ETV
attr interpolationmode sample-hold
attr source receptionStateChanged
attr title "Radio reception state, vector"
vector 89 FanetSybilNormale.host[19].wlan[0].radio transmissionState:vector ETV
attr interpolationmode sample-hold
attr source transmissionStateChanged
attr title "Radio transmission state, vector"
vector 90 FanetSybilNormale.host[20].wlan[0].radio receptionState:vector ETV
attr interpolationmode sample-hold
attr source receptionStateChanged
attr title "Radio reception state, vector"
vector 91 FanetSybilNormale.host[20].wlan[0].radio transmissionState:vector ETV
attr interpolationmode sample-hold
attr source transmissionStateChanged
attr title "Radio transmission state, vector"
vector 92 FanetSybilNormale.host[21].wlan[0].radio receptionState:vector ETV
attr interpolationmode sample-hold
attr source receptionStateChanged
attr title "Radio reception state, vector"
vector 93 FanetSybilNormale.host[21].wlan[0].radio transmissionState:vector ETV
attr interpolationmode sample-hold
attr source transmissionStateChanged
attr title "Radio transmission state, vector"
vector 94 FanetSybilNormale.host[22].wlan[0].radio receptionState:vector ETV
attr interpolationmode sample-hold
attr source receptionStateChanged
attr title "Radio reception state, vector"
vector 95 FanetSybilNormale.host[22].wlan[0].radio transmissionState:vector ETV
attr interpolationmode sample-hold
attr source transmissionStateChanged
attr title "Radio transmission state, vector"
vector 96 FanetSybilNormale.host[23].wlan[0].radio receptionState:vector ETV
attr interpolationmode sample-hold
attr source receptionStateChanged
attr title "Radio reception state, vector"
vector 97 FanetSybilNormale.host[23].wlan[0].radio transmissionState:vector ETV
attr interpolationmode sample-hold
attr source transmissionStateChanged
attr title "Radio transmission state, vector"
vector 98 FanetSybilNormale.host[24].wlan[0].radio receptionState:vector ETV
attr interpolationmode sample-hold
attr source receptionStateChanged
attr title "Radio reception state, vector"
vector 99 FanetSybilNormale.host[24].wlan[0].radio transmissionState:vector ETV
attr interpolationmode sample-hold
attr source transmissionStateChanged
attr title "Radio transmission state, vector"
vector 100 FanetSybilNormale.host[25].wlan[0].radio receptionState:vector ETV
attr interpolationmode sample-hold
attr source receptionStateChanged
attr title "Radio reception state, vector"
vector 101 FanetSybilNormale.host[25].wlan[0].radio transmissionState:vector ETV
attr interpolationmode sample-hold
attr source transmissionStateChanged
attr title "Radio transmission state, vector"
vector 102 FanetSybilNormale.host[26].wlan[0].radio receptionState:vector ETV
attr interpolationmode sample-hold
attr source receptionStateChanged
attr title "Radio reception state, vector"
vector 103 FanetSybilNormale.host[26].wlan[0].radio transmissionState:vector ETV
attr interpolationmode sample-hold
attr source transmissionStateChanged
attr title "Radio transmission state, vector"
vector 104 FanetSybilNormale.host[27].wlan[0].radio receptionState:vector ETV
attr interpolationmode sample-hold
attr source receptionStateChanged
attr title "Radio reception state, vector"
vector 105 FanetSybilNormale.host[27].wlan[0].radio transmissionState:vector ETV
attr interpolationmode sample-hold
attr source transmissionStateChanged
attr title "Radio transmission state, vector"
vector 106 FanetSybilNormale.host[28].wlan[0].radio receptionState:vector ETV
attr interpolationmode sample-hold
attr source receptionStateChanged
attr title "Radio reception state, vector"
vector 107 FanetSybilNormale.host[28].wlan[0].radio transmissionState:vector ETV
attr interpolationmode sample-hold
attr source transmissionStateChanged
attr title "Radio transmission state, vector"
vector 108 FanetSybilNormale.host[29].wlan[0].radio receptionState:vector ETV
attr interpolationmode sample-hold
attr source receptionStateChanged
attr title "Radio reception state, vector"
vector 109 FanetSybilNormale.host[29].wlan[0].radio transmissionState:vector ETV
attr interpolationmode sample-hold
attr source transmissionStateChanged
attr title "Radio transmission state, vector"
vector 110 FanetSybilNormale.attacker[0].wlan[0].radio receptionState:vector ETV
attr interpolationmode sample-hold
attr source receptionStateChanged
attr title "Radio reception state, vector"
vector 111 FanetSybilNormale.attacker[0].wlan[0].radio transmissionState:vector ETV
attr interpolationmode sample-hold
attr source transmissionStateChanged
attr title "Radio transmission state, vector"
vector 112 FanetSybilNormale.attacker[1].wlan[0].radio receptionState:vector ETV
attr interpolationmode sample-hold
attr source receptionStateChanged
attr title "Radio reception state, vector"
vector 113 FanetSybilNormale.attacker[1].wlan[0].radio transmissionState:vector ETV
attr interpolationmode sample-hold
attr source transmissionStateChanged
attr title "Radio transmission state, vector"
vector 114 FanetSybilNormale.attacker[2].wlan[0].radio receptionState:vector ETV
attr interpolationmode sample-hold
attr source receptionStateChanged
attr title "Radio reception state, vector"
vector 115 FanetSybilNormale.attacker[2].wlan[0].radio transmissionState:vector ETV
attr interpolationmode sample-hold
attr source transmissionStateChanged
attr title "Radio transmission state, vector"
vector 116 FanetSybilNormale.attacker[3].wlan[0].radio receptionState:vector ETV
attr interpolationmode sample-hold
attr source receptionStateChanged
attr title "Radio reception state, vector"
vector 117 FanetSybilNormale.attacker[3].wlan[0].radio transmissionState:vector ETV
attr interpolationmode sample-hold
attr source transmissionStateChanged
attr title "Radio transmission state, vector"
vector 118 FanetSybilNormale.attacker[4].wlan[0].radio receptionState:vector ETV
attr interpolationmode sample-hold
attr source receptionStateChanged
attr title "Radio reception state, vector"
vector 119 FanetSybilNormale.attacker[4].wlan[0].radio transmissionState:vector ETV
attr interpolationmode sample-hold
attr source transmissionStateChanged
attr title "Radio transmission state, vector"
vector 120 FanetSybilNormale.attacker[5].wlan[0].radio receptionState:vector ETV
attr interpolationmode sample-hold
attr source receptionStateChanged
attr title "Radio reception state, vector"
vector 121 FanetSybilNormale.attacker[5].wlan[0].radio transmissionState:vector ETV
attr interpolationmode sample-hold
attr source transmissionStateChanged
attr title "Radio transmission state, vector"
vector 122 FanetSybilNormale.attacker[6].wlan[0].radio receptionState:vector ETV
attr interpolationmode sample-hold
attr source receptionStateChanged
attr title "Radio reception state, vector"
vector 123 FanetSybilNormale.attacker[6].wlan[0].radio transmissionState:vector ETV
attr interpolationmode sample-hold
attr source transmissionStateChanged
attr title "Radio transmission state, vector"
vector 124 FanetSybilNormale.attacker[7].wlan[0].radio receptionState:vector ETV
attr interpolationmode sample-hold
attr source receptionStateChanged
attr title "Radio reception state, vector"
vector 125 FanetSybilNormale.attacker[7].wlan[0].radio transmissionState:vector ETV
attr interpolationmode sample-hold
attr source transmissionStateChanged
attr title "Radio transmission state, vector"
vector 126 FanetSybilNormale.attacker[8].wlan[0].radio receptionState:vector ETV
attr interpolationmode sample-hold
attr source receptionStateChanged
attr title "Radio reception state, vector"
vector 127 FanetSybilNormale.attacker[8].wlan[0].radio transmissionState:vector ETV
attr interpolationmode sample-hold
attr source transmissionStateChanged
attr title "Radio transmission state, vector"
vector 128 FanetSybilNormale.attacker[9].wlan[0].radio receptionState:vector ETV
attr interpolationmode sample-hold
attr source receptionStateChanged
attr title "Radio reception state, vector"
vector 129 FanetSybilNormale.attacker[9].wlan[0].radio transmissionState:vector ETV
attr interpolationmode sample-hold
attr source transmissionStateChanged
attr title "Radio transmission state, vector"
vector 130 FanetSybilNormale.attacker[10].wlan[0].radio receptionState:vector ETV
attr interpolationmode sample-hold
attr source receptionStateChanged
attr title "Radio reception state, vector"
vector 131 FanetSybilNormale.attacker[10].wlan[0].radio transmissionState:vector ETV
attr interpolationmode sample-hold
attr source transmissionStateChanged
attr title "Radio transmission state, vector"
vector 132 FanetSybilNormale.attacker[11].wlan[0].radio receptionState:vector ETV
attr interpolationmode sample-hold
attr source receptionStateChanged
attr title "Radio reception state, vector"
vector 133 FanetSybilNormale.attacker[11].wlan[0].radio transmissionState:vector ETV
attr interpolationmode sample-hold
attr source transmissionStateChanged
attr title "Radio transmission state, vector"
vector 134 FanetSybilNormale.attacker[12].wlan[0].radio receptionState:vector ETV
attr interpolationmode sample-hold
attr source receptionStateChanged
attr title "Radio reception state, vector"
vector 135 FanetSybilNormale.attacker[12].wlan[0].radio transmissionState:vector ETV
attr interpolationmode sample-hold
attr source transmissionStateChanged
attr title "Radio transmission state, vector"
vector 136 FanetSybilNormale.attacker[13].wlan[0].radio receptionState:vector ETV
attr interpolationmode sample-hold
attr source receptionStateChanged
attr title "Radio reception state, vector"
vector 137 FanetSybilNormale.attacker[13].wlan[0].radio transmissionState:vector ETV
attr interpolationmode sample-hold
attr source transmissionStateChanged
attr title "Radio transmission state, vector"
vector 138 FanetSybilNormale.attacker[14].wlan[0].radio receptionState:vector ETV
attr interpolationmode sample-hold
attr source receptionStateChanged
attr title "Radio reception state, vector"
vector 139 FanetSybilNormale.attacker[14].wlan[0].radio transmissionState:vector ETV
attr interpolationmode sample-hold
attr source transmissionStateChanged
attr title "Radio transmission state, vector"
vector 140 FanetSybilNormale.attacker[15].wlan[0].radio receptionState:vector ETV
attr interpolationmode sample-hold
attr source receptionStateChanged
attr title "Radio reception state, vector"
vector 141 FanetSybilNormale.attacker[15].wlan[0].radio transmissionState:vector ETV
attr interpolationmode sample-hold
attr source transmissionStateChanged
attr title "Radio transmission state, vector"
vector 142 FanetSybilNormale.attacker[16].wlan[0].radio receptionState:vector ETV
attr interpolationmode sample-hold
attr source receptionStateChanged
attr title "Radio reception state, vector"
vector 143 FanetSybilNormale.attacker[16].wlan[0].radio transmissionState:vector ETV
attr interpolationmode sample-hold
attr source transmissionStateChanged
attr title "Radio transmission state, vector"
vector 144 FanetSybilNormale.attacker[17].wlan[0].radio receptionState:vector ETV
attr interpolationmode sample-hold
attr source receptionStateChanged
attr title "Radio reception state, vector"
vector 145 FanetSybilNormale.attacker[17].wlan[0].radio transmissionState:vector ETV
attr interpolationmode sample-hold
attr source transmissionStateChanged
attr title "Radio transmission state, vector"
vector 146 FanetSybilNormale.attacker[18].wlan[0].radio receptionState:vector ETV
attr interpolationmode sample-hold
attr source receptionStateChanged
attr title "Radio reception state, vector"
vector 147 FanetSybilNormale.attacker[18].wlan[0].radio transmissionState:vector ETV
attr interpolationmode sample-hold
attr source transmissionStateChanged
attr title "Radio transmission state, vector"
vector 148 FanetSybilNormale.attacker[19].wlan[0].radio receptionState:vector ETV
attr interpolationmode sample-hold
attr source receptionStateChanged
attr title "Radio reception state, vector"
vector 149 FanetSybilNormale.attacker[19].wlan[0].radio transmissionState:vector ETV
attr interpolationmode sample-hold
attr source transmissionStateChanged
attr title "Radio transmission state, vector"
vector 150 FanetSybilNormale.attacker[2].wlan[0].mac rcvdPkFromHl:vector(packetBytes) ETV
attr interpolationmode none
attr source packetReceivedFromUpper
attr title "packets received from higher layer, vector(packetBytes)"
vector 151 FanetSybilNormale.attacker[2].wlan[0].mac.queue packetPushed:vector(packetBytes) ETV
attr interpolationmode none
attr title "packet pushed, vector(packetBytes)"
vector 152 FanetSybilNormale.attacker[2].wlan[0].mac.queue queueLength:vector ETV
attr interpolationmode sample-hold
attr source "count(packetPushed) - count(packetPopped) - count(packetRemoved) - count(packetDropped)"
attr title "queue length, vector"
vector 153 FanetSybilNormale.attacker[2].wlan[0].mac.queue packetPopped:vector(packetBytes) ETV
attr interpolationmode none
attr title "packet popped, vector(packetBytes)"
vector 154 FanetSybilNormale.attacker[2].wlan[0].mac.queue queueingTime:vector ETV
attr interpolationmode none
attr source queueingTime(packetPopped)
attr title "queueing times, vector"
attr unit s
vector 155 FanetSybilNormale.attacker[2].wlan[0].mac sentDownPk:vector(packetBytes) ETV
attr interpolationmode none
attr source packetSentToLower
attr title "packets sent to lower layer, vector(packetBytes)"
vector 156 FanetSybilNormale.host[15].wlan[0].mac rcvdPkFromLl:vector(packetBytes) ETV
attr interpolationmode none
attr source packetReceivedFromLower
attr title "packets received from lower layer, vector(packetBytes)"
vector 157 FanetSybilNormale.host[15].wlan[0].mac passedUpPk:vector(packetBytes) ETV
attr interpolationmode none
attr source packetSentToUpper
attr title "packets passed to higher layer, vector(packetBytes)"
vector 158 FanetSybilNormale.host[4].wlan[0].mac rcvdPkFromLl:vector(packetBytes) ETV
attr interpolationmode none
attr source packetReceivedFromLower
attr title "packets received from lower layer, vector(packetBytes)"
vector 159 FanetSybilNormale.host[4].wlan[0].mac passedUpPk:vector(packetBytes) ETV
attr interpolationmode none
attr source packetSentToUpper
attr title "packets passed to higher layer, vector(packetBytes)"
vector 160 FanetSybilNormale.host[16].wlan[0].mac rcvdPkFromLl:vector(packetBytes) ETV
attr interpolationmode none
attr source packetReceivedFromLower
attr title "packets received from lower layer, vector(packetBytes)"
vector 161 FanetSybilNormale.host[16].wlan[0].mac passedUpPk:vector(packetBytes) ETV
attr interpolationmode none
attr source packetSentToUpper
attr title "packets passed to higher layer, vector(packetBytes)"
vector 162 FanetSybilNormale.attacker[3].wlan[0].mac rcvdPkFromLl:vector(packetBytes) ETV
attr interpolationmode none
attr source packetReceivedFromLower
attr title "packets received from lower layer, vector(packetBytes)"
vector 163 FanetSybilNormale.attacker[3].wlan[0].mac passedUpPk:vector(packetBytes) ETV
attr interpolationmode none
attr source packetSentToUpper
attr title "packets passed to higher layer, vector(packetBytes)"
vector 164 FanetSybilNormale.attacker[5].wlan[0].mac rcvdPkFromLl:vector(packetBytes) ETV
attr interpolationmode none
attr source packetReceivedFromLower
attr title "packets received from lower layer, vector(packetBytes)"
vector 165 FanetSybilNormale.attacker[5].wlan[0].mac passedUpPk:vector(packetBytes) ETV
attr interpolationmode none
attr source packetSentToUpper
attr title "packets passed to higher layer, vector(packetBytes)"
vector 166 FanetSybilNormale.host[7].wlan[0].mac rcvdPkFromLl:vector(packetBytes) ETV
attr interpolationmode none
attr source packetReceivedFromLower
attr title "packets received from lower layer, vector(packetBytes)"
vector 167 FanetSybilNormale.host[7].wlan[0].mac passedUpPk:vector(packetBytes) ETV
attr interpolationmode none
attr source packetSentToUpper
attr title "packets passed to higher layer, vector(packetBytes)"
vector 168 FanetSybilNormale.host[15].wlan[0].mac rcvdPkFromHl:vector(packetBytes) ETV
attr interpolationmode none
attr source packetReceivedFromUpper
attr title "packets received from higher layer, vector(packetBytes)"
vector 169 FanetSybilNormale.host[15].wlan[0].mac.queue packetPushed:vector(packetBytes) ETV
attr interpolationmode none
attr title "packet pushed, vector(packetBytes)"
vector 170 FanetSybilNormale.host[15].wlan[0].mac.queue queueLength:vector ETV
attr interpolationmode sample-hold
attr source "count(packetPushed) - count(packetPopped) - count(packetRemoved) - count(packetDropped)"
attr title "queue length, vector"
vector 171 FanetSybilNormale.host[15].wlan[0].mac.queue packetPopped:vector(packetBytes) ETV
attr interpolationmode none
attr title "packet popped, vector(packetBytes)"
vector 172 FanetSybilNormale.host[15].wlan[0].mac.queue queueingTime:vector ETV
attr interpolationmode none
attr source queueingTime(packetPopped)
attr title "queueing times, vector"
attr unit s
vector 173 FanetSybilNormale.host[15].wlan[0].mac sentDownPk:vector(packetBytes) ETV
attr interpolationmode none
attr source packetSentToLower
attr title "packets sent to lower layer, vector(packetBytes)"
vector 174 FanetSybilNormale.attacker[2].wlan[0].mac rcvdPkFromLl:vector(packetBytes) ETV
attr interpolationmode none
attr source packetReceivedFromLower
attr title "packets received from lower layer, vector(packetBytes)"
vector 175 FanetSybilNormale.attacker[2].wlan[0].mac passedUpPk:vector(packetBytes) ETV
attr interpolationmode none
attr source packetSentToUpper
attr title "packets passed to higher layer, vector(packetBytes)"
vector 176 FanetSybilNormale.host[28].wlan[0].mac rcvdPkFromHl:vector(packetBytes) ETV
attr interpolationmode none
attr source packetReceivedFromUpper
attr title "packets received from higher layer, vector(packetBytes)"
vector 177 FanetSybilNormale.host[28].wlan[0].mac.queue packetPushed:vector(packetBytes) ETV
attr interpolationmode none
attr title "packet pushed, vector(packetBytes)"
vector 178 FanetSybilNormale.host[28].wlan[0].mac.queue queueLength:vector ETV
attr interpolationmode sample-hold
attr source "count(packetPushed) - count(packetPopped) - count(packetRemoved) - count(packetDropped)"
attr title "queue length, vector"
vector 179 FanetSybilNormale.host[28].wlan[0].mac.queue packetPopped:vector(packetBytes) ETV
attr interpolationmode none
attr title "packet popped, vector(packetBytes)"
vector 180 FanetSybilNormale.host[28].wlan[0].mac.queue queueingTime:vector ETV
attr interpolationmode none
attr source queueingTime(packetPopped)
attr title "queueing times, vector"
attr unit s
vector 181 FanetSybilNormale.host[28].wlan[0].mac sentDownPk:vector(packetBytes) ETV
attr interpolationmode none
attr source packetSentToLower
attr title "packets sent to lower layer, vector(packetBytes)"
vector 182 FanetSybilNormale.host[2].wlan[0].mac rcvdPkFromLl:vector(packetBytes) ETV
attr interpolationmode none
attr source packetReceivedFromLower
attr title "packets received from lower layer, vector(packetBytes)"
vector 183 FanetSybilNormale.host[2].wlan[0].mac passedUpPk:vector(packetBytes) ETV
attr interpolationmode none
attr source packetSentToUpper
attr title "packets passed to higher layer, vector(packetBytes)"
vector 184 FanetSybilNormale.attacker[1].wlan[0].mac rcvdPkFromLl:vector(packetBytes) ETV
attr interpolationmode none
attr source packetReceivedFromLower
attr title "packets received from lower layer, vector(packetBytes)"
vector 185 FanetSybilNormale.attacker[1].wlan[0].mac passedUpPk:vector(packetBytes) ETV
attr interpolationmode none
attr source packetSentToUpper
attr title "packets passed to higher layer, vector(packetBytes)"
vector 186 FanetSybilNormale.attacker[4].wlan[0].mac rcvdPkFromLl:vector(packetBytes) ETV
attr interpolationmode none
attr source packetReceivedFromLower
attr title "packets received from lower layer, vector(packetBytes)"
vector 187 FanetSybilNormale.attacker[4].wlan[0].mac passedUpPk:vector(packetBytes) ETV
attr interpolationmode none
attr source packetSentToUpper
attr title "packets passed to higher layer, vector(packetBytes)"
vector 188 FanetSybilNormale.host[3].wlan[0].mac rcvdPkFromLl:vector(packetBytes) ETV
attr interpolationmode none
attr source packetReceivedFromLower
attr title "packets received from lower layer, vector(packetBytes)"
vector 189 FanetSybilNormale.host[3].wlan[0].mac passedUpPk:vector(packetBytes) ETV
attr interpolationmode none
attr source packetSentToUpper
attr title "packets passed to higher layer, vector(packetBytes)"
vector 190 FanetSybilNormale.attacker[0].wlan[0].mac rcvdPkFromHl:vector(packetBytes) ETV
attr interpolationmode none
attr source packetReceivedFromUpper
attr title "packets received from higher layer, vector(packetBytes)"
vector 191 FanetSybilNormale.attacker[0].wlan[0].mac.queue packetPushed:vector(packetBytes) ETV
attr interpolationmode none
attr title "packet pushed, vector(packetBytes)"
vector 192 FanetSybilNormale.attacker[0].wlan[0].mac.queue queueLength:vector ETV
attr interpolationmode sample-hold
attr source "count(packetPushed) - count(packetPopped) - count(packetRemoved) - count(packetDropped)"
attr title "queue length, vector"
vector 193 FanetSybilNormale.attacker[0].wlan[0].mac.queue packetPopped:vector(packetBytes) ETV
attr interpolationmode none
attr title "packet popped, vector(packetBytes)"
vector 194 FanetSybilNormale.attacker[0].wlan[0].mac.queue queueingTime:vector ETV
attr interpolationmode none
attr source queueingTime(packetPopped)
attr title "queueing times, vector"
attr unit s
vector 195 FanetSybilNormale.attacker[0].wlan[0].mac sentDownPk:vector(packetBytes) ETV
attr interpolationmode none
attr source packetSentToLower
attr title "packets sent to lower layer, vector(packetBytes)"
vector 196 FanetSybilNormale.attacker[18].wlan[0].mac rcvdPkFromLl:vector(packetBytes) ETV
attr interpolationmode none
attr source packetReceivedFromLower
attr title "packets received from lower layer, vector(packetBytes)"
vector 197 FanetSybilNormale.attacker[18].wlan[0].mac passedUpPk:vector(packetBytes) ETV
attr interpolationmode none
attr source packetSentToUpper
attr title "packets passed to higher layer, vector(packetBytes)"
vector 198 FanetSybilNormale.host[27].wlan[0].mac rcvdPkFromLl:vector(packetBytes) ETV
attr interpolationmode none
attr source packetReceivedFromLower
attr title "packets received from lower layer, vector(packetBytes)"
vector 199 FanetSybilNormale.host[27].wlan[0].mac passedUpPk:vector(packetBytes) ETV
attr interpolationmode none
attr source packetSentToUpper
attr title "packets passed to higher layer, vector(packetBytes)"
vector 200 FanetSybilNormale.host[12].wlan[0].mac rcvdPkFromLl:vector(packetBytes) ETV
attr interpolationmode none
attr source packetReceivedFromLower
attr title "packets received from lower layer, vector(packetBytes)"
vector 201 FanetSybilNormale.host[12].wlan[0].mac passedUpPk:vector(packetBytes) ETV
attr interpolationmode none
attr source packetSentToUpper
attr title "packets passed to higher layer, vector(packetBytes)"
vector 202 FanetSybilNormale.attacker[10].wlan[0].mac rcvdPkFromLl:vector(packetBytes) ETV
attr interpolationmode none
attr source packetReceivedFromLower
attr title "packets received from lower layer, vector(packetBytes)"
vector 203 FanetSybilNormale.attacker[10].wlan[0].mac passedUpPk:vector(packetBytes) ETV
attr interpolationmode none
attr source packetSentToUpper
attr title "packets passed to higher layer, vector(packetBytes)"
vector 204 FanetSybilNormale.attacker[13].wlan[0].mac rcvdPkFromLl:vector(packetBytes) ETV
attr interpolationmode none
attr source packetReceivedFromLower
attr title "packets received from lower layer, vector(packetBytes)"
vector 205 FanetSybilNormale.attacker[13].wlan[0].mac passedUpPk:vector(packetBytes) ETV
attr interpolationmode none
attr source packetSentToUpper
attr title "packets passed to higher layer, vector(packetBytes)"
vector 206 FanetSybilNormale.attacker[18].wlan[0].mac rcvdPkFromHl:vector(packetBytes) ETV
attr interpolationmode none
attr source packetReceivedFromUpper
attr title "packets received from higher layer, vector(packetBytes)"
vector 207 FanetSybilNormale.attacker[18].wlan[0].mac.queue packetPushed:vector(packetBytes) ETV
attr interpolationmode none
attr title "packet pushed, vector(packetBytes)"
vector 208 FanetSybilNormale.attacker[18].wlan[0].mac.queue queueLength:vector ETV
attr interpolationmode sample-hold
attr source "count(packetPushed) - count(packetPopped) - count(packetRemoved) - count(packetDropped)"
attr title "queue length, vector"
vector 209 FanetSybilNormale.attacker[18].wlan[0].mac.queue packetPopped:vector(packetBytes) ETV
attr interpolationmode none
attr title "packet popped, vector(packetBytes)"
vector 210 FanetSybilNormale.attacker[18].wlan[0].mac.queue queueingTime:vector ETV
attr interpolationmode none
attr source queueingTime(packetPopped)
attr title "queueing times, vector"
attr unit s
vector 211 FanetSybilNormale.attacker[18].wlan[0].mac sentDownPk:vector(packetBytes) ETV
attr interpolationmode none
attr source packetSentToLower
attr title "packets sent to lower layer, vector(packetBytes)"
vector 212 FanetSybilNormale.attacker[0].wlan[0].mac rcvdPkFromLl:vector(packetBytes) ETV
attr interpolationmode none
attr source packetReceivedFromLower
attr title "packets received from lower layer, vector(packetBytes)"
vector 213 FanetSybilNormale.attacker[0].wlan[0].mac passedUpPk:vector(packetBytes) ETV
attr interpolationmode none
attr source packetSentToUpper
attr title "packets passed to higher layer, vector(packetBytes)"
vector 214 FanetSybilNormale.attacker[6].wlan[0].mac rcvdPkFromLl:vector(packetBytes) ETV
attr interpolationmode none
attr source packetReceivedFromLower
attr title "packets received from lower layer, vector(packetBytes)"
vector 215 FanetSybilNormale.attacker[6].wlan[0].mac passedUpPk:vector(packetBytes) ETV
attr interpolationmode none
attr source packetSentToUpper
attr title "packets passed to higher layer, vector(packetBytes)"
vector 216 FanetSybilNormale.attacker[7].wlan[0].mac rcvdPkFromHl:vector(packetBytes) ETV
attr interpolationmode none
attr source packetReceivedFromUpper
attr title "packets received from higher layer, vector(packetBytes)"
vector 217 FanetSybilNormale.attacker[7].wlan[0].mac.queue packetPushed:vector(packetBytes) ETV
attr interpolationmode none
attr title "packet pushed, vector(packetBytes)"
vector 218 FanetSybilNormale.attacker[7].wlan[0].mac.queue queueLength:vector ETV
attr interpolationmode sample-hold
attr source "count(packetPushed) - count(packetPopped) - count(packetRemoved) - count(packetDropped)"
attr title "queue length, vector"
vector 219 FanetSybilNormale.attacker[7].wlan[0].mac.queue packetPopped:vector(packetBytes) ETV
attr interpolationmode none
attr title "packet popped, vector(packetBytes)"
vector 220 FanetSybilNormale.attacker[7].wlan[0].mac.queue queueingTime:vector ETV
attr interpolationmode none
attr source queueingTime(packetPopped)
attr title "queueing times, vector"
attr unit s
vector 221 FanetSybilNormale.attacker[7].wlan[0].mac sentDownPk:vector(packetBytes) ETV
attr interpolationmode none
attr source packetSentToLower
attr title "packets sent to lower layer, vector(packetBytes)"
vector 222 FanetSybilNormale.host[6].wlan[0].mac rcvdPkFromLl:vector(packetBytes) ETV
attr interpolationmode none
attr source packetReceivedFromLower
attr title "packets received from lower layer, vector(packetBytes)"
vector 223 FanetSybilNormale.host[6].wlan[0].mac passedUpPk:vector(packetBytes) ETV
attr interpolationmode none
attr source packetSentToUpper
attr title "packets passed to higher layer, vector(packetBytes)"
vector 224 FanetSybilNormale.host[17].wlan[0].mac rcvdPkFromHl:vector(packetBytes) ETV
attr interpolationmode none
attr source packetReceivedFromUpper
attr title "packets received from higher layer, vector(packetBytes)"
vector 225 FanetSybilNormale.host[17].wlan[0].mac.queue packetPushed:vector(packetBytes) ETV
attr interpolationmode none
attr title "packet pushed, vector(packetBytes)"
vector 226 FanetSybilNormale.host[17].wlan[0].mac.queue queueLength:vector ETV
attr interpolationmode sample-hold
attr source "count(packetPushed) - count(packetPopped) - count(packetRemoved) - count(packetDropped)"
attr title "queue length, vector"
vector 227 FanetSybilNormale.host[17].wlan[0].mac.queue packetPopped:vector(packetBytes) ETV
attr interpolationmode none
attr title "packet popped, vector(packetBytes)"
vector 228 FanetSybilNormale.host[17].wlan[0].mac.queue queueingTime:vector ETV
attr interpolationmode none
attr source queueingTime(packetPopped)
attr title "queueing times, vector"
attr unit s
vector 229 FanetSybilNormale.host[17].wlan[0].mac sentDownPk:vector(packetBytes) ETV
attr interpolationmode none
attr source packetSentToLower
attr title "packets sent to lower layer, vector(packetBytes)"
vector 230 FanetSybilNormale.attacker[17].wlan[0].mac rcvdPkFromLl:vector(packetBytes) ETV
attr interpolationmode none
attr source packetReceivedFromLower
attr title "packets received from lower layer, vector(packetBytes)"
vector 231 FanetSybilNormale.attacker[17].wlan[0].mac passedUpPk:vector(packetBytes) ETV
attr interpolationmode none
attr source packetSentToUpper
attr title "packets passed to higher layer, vector(packetBytes)"
vector 232 FanetSybilNormale.attacker[19].wlan[0].mac rcvdPkFromLl:vector(packetBytes) ETV
attr interpolationmode none
attr source packetReceivedFromLower
attr title "packets received from lower layer, vector(packetBytes)"
vector 233 FanetSybilNormale.attacker[19].wlan[0].mac passedUpPk:vector(packetBytes) ETV
attr interpolationmode none
attr source packetSentToUpper
attr title "packets passed to higher layer, vector(packetBytes)"
vector 234 FanetSybilNormale.host[5].wlan[0].mac rcvdPkFromLl:vector(packetBytes) ETV
attr interpolationmode none
attr source packetReceivedFromLower
attr title "packets received from lower layer, vector(packetBytes)"
vector 235 FanetSybilNormale.host[5].wlan[0].mac passedUpPk:vector(packetBytes) ETV
attr interpolationmode none
attr source packetSentToUpper
attr title "packets passed to higher layer, vector(packetBytes)"
vector 236 FanetSybilNormale.attacker[11].wlan[0].mac rcvdPkFromLl:vector(packetBytes) ETV
attr interpolationmode none
attr source packetReceivedFromLower
attr title "packets received from lower layer, vector(packetBytes)"
vector 237 FanetSybilNormale.attacker[11].wlan[0].mac passedUpPk:vector(packetBytes) ETV
attr interpolationmode none
attr source packetSentToUpper
attr title "packets passed to higher layer, vector(packetBytes)"
vector 238 FanetSybilNormale.attacker[9].wlan[0].mac rcvdPkFromLl:vector(packetBytes) ETV
attr interpolationmode none
attr source packetReceivedFromLower
attr title "packets received from lower layer, vector(packetBytes)"
vector 239 FanetSybilNormale.attacker[9].wlan[0].mac passedUpPk:vector(packetBytes) ETV
attr interpolationmode none
attr source packetSentToUpper
attr title "packets passed to higher layer, vector(packetBytes)"
vector 240 FanetSybilNormale.attacker[14].wlan[0].mac rcvdPkFromLl:vector(packetBytes) ETV
attr interpolationmode none
attr source packetReceivedFromLower
attr title "packets received from lower layer, vector(packetBytes)"
vector 241 FanetSybilNormale.attacker[14].wlan[0].mac passedUpPk:vector(packetBytes) ETV
attr interpolationmode none
attr source packetSentToUpper
attr title "packets passed to higher layer, vector(packetBytes)"
vector 242 FanetSybilNormale.host[13].wlan[0].mac rcvdPkFromHl:vector(packetBytes) ETV
attr interpolationmode none
attr source packetReceivedFromUpper
attr title "packets received from higher layer, vector(packetBytes)"
vector 243 FanetSybilNormale.host[13].wlan[0].mac.queue packetPushed:vector(packetBytes) ETV
attr interpolationmode none
attr title "packet pushed, vector(packetBytes)"
vector 244 FanetSybilNormale.host[13].wlan[0].mac.queue queueLength:vector ETV
attr interpolationmode sample-hold
attr source "count(packetPushed) - count(packetPopped) - count(packetRemoved) - count(packetDropped)"
attr title "queue length, vector"
vector 245 FanetSybilNormale.host[13].wlan[0].mac.queue packetPopped:vector(packetBytes) ETV
attr interpolationmode none
attr title "packet popped, vector(packetBytes)"
vector 246 FanetSybilNormale.host[13].wlan[0].mac.queue queueingTime:vector ETV
attr interpolationmode none
attr source queueingTime(packetPopped)
attr title "queueing times, vector"
attr unit s
vector 247 FanetSybilNormale.host[13].wlan[0].mac sentDownPk:vector(packetBytes) ETV
attr interpolationmode none
attr source packetSentToLower
attr title "packets sent to lower layer, vector(packetBytes)"
vector 248 FanetSybilNormale.host[22].wlan[0].mac rcvdPkFromLl:vector(packetBytes) ETV
attr interpolationmode none
attr source packetReceivedFromLower
attr title "packets received from lower layer, vector(packetBytes)"
vector 249 FanetSybilNormale.host[22].wlan[0].mac passedUpPk:vector(packetBytes) ETV
attr interpolationmode none
attr source packetSentToUpper
attr title "packets passed to higher layer, vector(packetBytes)"
vector 250 FanetSybilNormale.host[24].wlan[0].mac rcvdPkFromLl:vector(packetBytes) ETV
attr interpolationmode none
attr source packetReceivedFromLower
attr title "packets received from lower layer, vector(packetBytes)"
vector 251 FanetSybilNormale.host[24].wlan[0].mac passedUpPk:vector(packetBytes) ETV
attr interpolationmode none
attr source packetSentToUpper
attr title "packets passed to higher layer, vector(packetBytes)"
vector 252 FanetSybilNormale.host[29].wlan[0].mac rcvdPkFromHl:vector(packetBytes) ETV
attr interpolationmode none
attr source packetReceivedFromUpper
attr title "packets received from higher layer, vector(packetBytes)"
vector 253 FanetSybilNormale.host[29].wlan[0].mac.queue packetPushed:vector(packetBytes) ETV
attr interpolationmode none
attr title "packet pushed, vector(packetBytes)"
vector 254 FanetSybilNormale.host[29].wlan[0].mac.queue queueLength:vector ETV
attr interpolationmode sample-hold
attr source "count(packetPushed) - count(packetPopped) - count(packetRemoved) - count(packetDropped)"
attr title "queue length, vector"
vector 255 FanetSybilNormale.host[29].wlan[0].mac.queue packetPopped:vector(packetBytes) ETV
attr interpolationmode none
attr title "packet popped, vector(packetBytes)"
vector 256 FanetSybilNormale.host[29].wlan[0].mac.queue queueingTime:vector ETV
attr interpolationmode none
attr source queueingTime(packetPopped)
attr title "queueing times, vector"
attr unit s
vector 257 FanetSybilNormale.host[29].wlan[0].mac sentDownPk:vector(packetBytes) ETV
attr interpolationmode none
attr source packetSentToLower
attr title "packets sent to lower layer, vector(packetBytes)"
vector 258 FanetSybilNormale.host[1].wlan[0].mac rcvdPkFromLl:vector(packetBytes) ETV
attr interpolationmode none
attr source packetReceivedFromLower
attr title "packets received from lower layer, vector(packetBytes)"
vector 259 FanetSybilNormale.host[1].wlan[0].mac passedUpPk:vector(packetBytes) ETV
attr interpolationmode none
attr source packetSentToUpper
attr title "packets passed to higher layer, vector(packetBytes)"
vector 260 FanetSybilNormale.attacker[3].wlan[0].mac rcvdPkFromHl:vector(packetBytes) ETV
attr interpolationmode none
attr source packetReceivedFromUpper
attr title "packets received from higher layer, vector(packetBytes)"
vector 261 FanetSybilNormale.attacker[3].wlan[0].mac.queue packetPushed:vector(packetBytes) ETV
attr interpolationmode none
attr title "packet pushed, vector(packetBytes)"
vector 262 FanetSybilNormale.attacker[3].wlan[0].mac.queue queueLength:vector ETV
attr interpolationmode sample-hold
attr source "count(packetPushed) - count(packetPopped) - count(packetRemoved) - count(packetDropped)"
attr title "queue length, vector"
vector 263 FanetSybilNormale.attacker[3].wlan[0].mac.queue packetPopped:vector(packetBytes) ETV
attr interpolationmode none
attr title "packet popped, vector(packetBytes)"
vector 264 FanetSybilNormale.attacker[3].wlan[0].mac.queue queueingTime:vector ETV
attr interpolationmode none
attr source queueingTime(packetPopped)
attr title "queueing times, vector"
attr unit s
vector 265 FanetSybilNormale.attacker[3].wlan[0].mac sentDownPk:vector(packetBytes) ETV
attr interpolationmode none
attr source packetSentToLower
attr title "packets sent to lower layer, vector(packetBytes)"
vector 266 FanetSybilNormale.host[18].wlan[0].mac rcvdPkFromLl:vector(packetBytes) ETV
attr interpolationmode none
attr source packetReceivedFromLower
attr title "packets received from lower layer, vector(packetBytes)"
vector 267 FanetSybilNormale.host[18].wlan[0].mac passedUpPk:vector(packetBytes) ETV
attr interpolationmode none
attr source packetSentToUpper
attr title "packets passed to higher layer, vector(packetBytes)"
vector 268 FanetSybilNormale.host[18].wlan[0].mac rcvdPkFromHl:vector(packetBytes) ETV
attr interpolationmode none
attr source packetReceivedFromUpper
attr title "packets received from higher layer, vector(packetBytes)"
vector 269 FanetSybilNormale.host[18].wlan[0].mac.queue packetPushed:vector(packetBytes) ETV
attr interpolationmode none
attr title "packet pushed, vector(packetBytes)"
vector 270 FanetSybilNormale.host[18].wlan[0].mac.queue queueLength:vector ETV
attr interpolationmode sample-hold
attr source "count(packetPushed) - count(packetPopped) - count(packetRemoved) - count(packetDropped)"
attr title "queue length, vector"
vector 271 FanetSybilNormale.host[18].wlan[0].mac.queue packetPopped:vector(packetBytes) ETV
attr interpolationmode none
attr title "packet popped, vector(packetBytes)"
vector 272 FanetSybilNormale.host[18].wlan[0].mac.queue queueingTime:vector ETV
attr interpolationmode none
attr source queueingTime(packetPopped)
attr title "queueing times, vector"
attr unit s
vector 273 FanetSybilNormale.host[18].wlan[0].mac sentDownPk:vector(packetBytes) ETV
attr interpolationmode none
attr source packetSentToLower
attr title "packets sent to lower layer, vector(packetBytes)"
vector 274 FanetSybilNormale.host[0].wlan[0].mac rcvdPkFromLl:vector(packetBytes) ETV
attr interpolationmode none
attr source packetReceivedFromLower
attr title "packets received from lower layer, vector(packetBytes)"
vector 275 FanetSybilNormale.host[0].wlan[0].mac passedUpPk:vector(packetBytes) ETV
attr interpolationmode none
attr source packetSentToUpper
attr title "packets passed to higher layer, vector(packetBytes)"
vector 276 FanetSybilNormale.host[9].wlan[0].mac rcvdPkFromLl:vector(packetBytes) ETV
attr interpolationmode none
attr source packetReceivedFromLower
attr title "packets received from lower layer, vector(packetBytes)"
vector 277 FanetSybilNormale.host[9].wlan[0].mac passedUpPk:vector(packetBytes) ETV
attr interpolationmode none
attr source packetSentToUpper
attr title "packets passed to higher layer, vector(packetBytes)"
vector 278 FanetSybilNormale.host[11].wlan[0].mac rcvdPkFromHl:vector(packetBytes) ETV
attr interpolationmode none
attr source packetReceivedFromUpper
attr title "packets received from higher layer, vector(packetBytes)"
vector 279 FanetSybilNormale.host[11].wlan[0].mac.queue packetPushed:vector(packetBytes) ETV
attr interpolationmode none
attr title "packet pushed, vector(packetBytes)"
vector 280 FanetSybilNormale.host[11].wlan[0].mac.queue queueLength:vector ETV
attr interpolationmode sample-hold
attr source "count(packetPushed) - count(packetPopped) - count(packetRemoved) - count(packetDropped)"
attr title "queue length, vector"
vector 281 FanetSybilNormale.host[11].wlan[0].mac.queue packetPopped:vector(packetBytes) ETV
attr interpolationmode none
attr title "packet popped, vector(packetBytes)"
vector 282 FanetSybilNormale.host[11].wlan[0].mac.queue queueingTime:vector ETV
attr interpolationmode none
attr source queueingTime(packetPopped)
attr title "queueing times, vector"
attr unit s
vector 283 FanetSybilNormale.host[11].wlan[0].mac sentDownPk:vector(packetBytes) ETV
attr interpolationmode none
attr source packetSentToLower
attr title "packets sent to lower layer, vector(packetBytes)"
vector 284 FanetSybilNormale.host[23].wlan[0].mac rcvdPkFromLl:vector(packetBytes) ETV
attr interpolationmode none
attr source packetReceivedFromLower
attr title "packets received from lower layer, vector(packetBytes)"
vector 285 FanetSybilNormale.host[23].wlan[0].mac passedUpPk:vector(packetBytes) ETV
attr interpolationmode none
attr source packetSentToUpper
attr title "packets passed to higher layer, vector(packetBytes)"
vector 286 FanetSybilNormale.host[25].wlan[0].mac rcvdPkFromHl:vector(packetBytes) ETV
attr interpolationmode none
attr source packetReceivedFromUpper
attr title "packets received from higher layer, vector(packetBytes)"
vector 287 FanetSybilNormale.host[25].wlan[0].mac.queue packetPushed:vector(packetBytes) ETV
attr interpolationmode none
attr title "packet pushed, vector(packetBytes)"
vector 288 FanetSybilNormale.host[25].wlan[0].mac.queue queueLength:vector ETV
attr interpolationmode sample-hold
attr source "count(packetPushed) - count(packetPopped) - count(packetRemoved) - count(packetDropped)"
attr title "queue length, vector"
vector 289 FanetSybilNormale.host[25].wlan[0].mac.queue packetPopped:vector(packetBytes) ETV
attr interpolationmode none
attr title "packet popped, vector(packetBytes)"
vector 290 FanetSybilNormale.host[25].wlan[0].mac.queue queueingTime:vector ETV
attr interpolationmode none
attr source queueingTime(packetPopped)
attr title "queueing times, vector"
attr unit s
vector 291 FanetSybilNormale.host[25].wlan[0].mac sentDownPk:vector(packetBytes) ETV
attr interpolationmode none
attr source packetSentToLower
attr title "packets sent to lower layer, vector(packetBytes)"
vector 292 FanetSybilNormale.attacker[12].wlan[0].mac rcvdPkFromLl:vector(packetBytes) ETV
attr interpolationmode none
attr source packetReceivedFromLower
attr title "packets received from lower layer, vector(packetBytes)"
vector 293 FanetSybilNormale.attacker[12].wlan[0].mac passedUpPk:vector(packetBytes) ETV
attr interpolationmode none
attr source packetSentToUpper
attr title "packets passed to higher layer, vector(packetBytes)"
vector 294 FanetSybilNormale.host[8].wlan[0].mac rcvdPkFromHl:vector(packetBytes) ETV
attr interpolationmode none
attr source packetReceivedFromUpper
attr title "packets received from higher layer, vector(packetBytes)"
vector 295 FanetSybilNormale.host[8].wlan[0].mac.queue packetPushed:vector(packetBytes) ETV
attr interpolationmode none
attr title "packet pushed, vector(packetBytes)"
vector 296 FanetSybilNormale.host[8].wlan[0].mac.queue queueLength:vector ETV
attr interpolationmode sample-hold
attr source "count(packetPushed) - count(packetPopped) - count(packetRemoved) - count(packetDropped)"
attr title "queue length, vector"
vector 297 FanetSybilNormale.host[8].wlan[0].mac.queue packetPopped:vector(packetBytes) ETV
attr interpolationmode none
attr title "packet popped, vector(packetBytes)"
vector 298 FanetSybilNormale.host[8].wlan[0].mac.queue queueingTime:vector ETV
attr interpolationmode none
attr source queueingTime(packetPopped)
attr title "queueing times, vector"
attr unit s
vector 299 FanetSybilNormale.host[8].wlan[0].mac sentDownPk:vector(packetBytes) ETV
attr interpolationmode none
attr source packetSentToLower
attr title "packets sent to lower layer, vector(packetBytes)"
vector 300 FanetSybilNormale.host[12].wlan[0].mac rcvdPkFromHl:vector(packetBytes) ETV
attr interpolationmode none
attr source packetReceivedFromUpper
attr title "packets received from higher layer, vector(packetBytes)"
vector 301 FanetSybilNormale.host[12].wlan[0].mac.queue packetPushed:vector(packetBytes) ETV
attr interpolationmode none
attr title "packet pushed, vector(packetBytes)"
vector 302 FanetSybilNormale.host[12].wlan[0].mac.queue queueLength:vector ETV
attr interpolationmode sample-hold
attr source "count(packetPushed) - count(packetPopped) - count(packetRemoved) - count(packetDropped)"
attr title "queue length, vector"
vector 303 FanetSybilNormale.host[12].wlan[0].mac.queue packetPopped:vector(packetBytes) ETV
attr interpolationmode none
attr title "packet popped, vector(packetBytes)"
vector 304 FanetSybilNormale.host[12].wlan[0].mac.queue queueingTime:vector ETV
attr interpolationmode none
attr source queueingTime(packetPopped)
attr title "queueing times, vector"
attr unit s
vector 305 FanetSybilNormale.host[12].wlan[0].mac sentDownPk:vector(packetBytes) ETV
attr interpolationmode none
attr source packetSentToLower
attr title "packets sent to lower layer, vector(packetBytes)"
vector 306 FanetSybilNormale.attacker[14].wlan[0].mac rcvdPkFromHl:vector(packetBytes) ETV
attr interpolationmode none
attr source packetReceivedFromUpper
attr title "packets received from higher layer, vector(packetBytes)"
vector 307 FanetSybilNormale.attacker[14].wlan[0].mac.queue packetPushed:vector(packetBytes) ETV
attr interpolationmode none
attr title "packet pushed, vector(packetBytes)"
vector 308 FanetSybilNormale.attacker[14].wlan[0].mac.queue queueLength:vector ETV
attr interpolationmode sample-hold
attr source "count(packetPushed) - count(packetPopped) - count(packetRemoved) - count(packetDropped)"
attr title "queue length, vector"
vector 309 FanetSybilNormale.attacker[14].wlan[0].mac.queue packetPopped:vector(packetBytes) ETV
attr interpolationmode none
attr title "packet popped, vector(packetBytes)"
vector 310 FanetSybilNormale.attacker[14].wlan[0].mac.queue queueingTime:vector ETV
attr interpolationmode none
attr source queueingTime(packetPopped)
attr title "queueing times, vector"
attr unit s
vector 311 FanetSybilNormale.attacker[14].wlan[0].mac sentDownPk:vector(packetBytes) ETV
attr interpolationmode none
attr source packetSentToLower
attr title "packets sent to lower layer, vector(packetBytes)"
vector 312 FanetSybilNormale.host[17].wlan[0].mac rcvdPkFromLl:vector(packetBytes) ETV
attr interpolationmode none
attr source packetReceivedFromLower
attr title "packets received from lower layer, vector(packetBytes)"
vector 313 FanetSybilNormale.host[17].wlan[0].mac passedUpPk:vector(packetBytes) ETV
attr interpolationmode none
attr source packetSentToUpper
attr title "packets passed to higher layer, vector(packetBytes)"
vector 314 FanetSybilNormale.attacker[11].wlan[0].mac rcvdPkFromHl:vector(packetBytes) ETV
attr interpolationmode none
attr source packetReceivedFromUpper
attr title "packets received from higher layer, vector(packetBytes)"
vector 315 FanetSybilNormale.attacker[11].wlan[0].mac.queue packetPushed:vector(packetBytes) ETV
attr interpolationmode none
attr title "packet pushed, vector(packetBytes)"
vector 316 FanetSybilNormale.attacker[11].wlan[0].mac.queue queueLength:vector ETV
attr interpolationmode sample-hold
attr source "count(packetPushed) - count(packetPopped) - count(packetRemoved) - count(packetDropped)"
attr title "queue length, vector"
vector 317 FanetSybilNormale.attacker[11].wlan[0].mac.queue packetPopped:vector(packetBytes) ETV
attr interpolationmode none
attr title "packet popped, vector(packetBytes)"
vector 318 FanetSybilNormale.attacker[11].wlan[0].mac.queue queueingTime:vector ETV
attr interpolationmode none
attr source queueingTime(packetPopped)
attr title "queueing times, vector"
attr unit s
vector 319 FanetSybilNormale.attacker[11].wlan[0].mac sentDownPk:vector(packetBytes) ETV
attr interpolationmode none
attr source packetSentToLower
attr title "packets sent to lower layer, vector(packetBytes)"
vector 320 FanetSybilNormale.host[19].wlan[0].mac rcvdPkFromLl:vector(packetBytes) ETV
attr interpolationmode none
attr source packetReceivedFromLower
attr title "packets received from lower layer, vector(packetBytes)"
vector 321 FanetSybilNormale.host[19].wlan[0].mac passedUpPk:vector(packetBytes) ETV
attr interpolationmode none
attr source packetSentToUpper
attr title "packets passed to higher layer, vector(packetBytes)"
vector 322 FanetSybilNormale.host[19].wlan[0].mac rcvdPkFromHl:vector(packetBytes) ETV
attr interpolationmode none
attr source packetReceivedFromUpper
attr title "packets received from higher layer, vector(packetBytes)"
vector 323 FanetSybilNormale.host[19].wlan[0].mac.queue packetPushed:vector(packetBytes) ETV
attr interpolationmode none
attr title "packet pushed, vector(packetBytes)"
vector 324 FanetSybilNormale.host[19].wlan[0].mac.queue queueLength:vector ETV
attr interpolationmode sample-hold
attr source "count(packetPushed) - count(packetPopped) - count(packetRemoved) - count(packetDropped)"
attr title "queue length, vector"
vector 325 FanetSybilNormale.host[19].wlan[0].mac.queue packetPopped:vector(packetBytes) ETV
attr interpolationmode none
attr title "packet popped, vector(packetBytes)"
vector 326 FanetSybilNormale.host[19].wlan[0].mac.queue queueingTime:vector ETV
attr interpolationmode none
attr source queueingTime(packetPopped)
attr title "queueing times, vector"
attr unit s
vector 327 FanetSybilNormale.host[19].wlan[0].mac sentDownPk:vector(packetBytes) ETV
attr interpolationmode none
attr source packetSentToLower
attr title "packets sent to lower layer, vector(packetBytes)"
vector 328 FanetSybilNormale.host[10].wlan[0].mac rcvdPkFromLl:vector(packetBytes) ETV
attr interpolationmode none
attr source packetReceivedFromLower
attr title "packets received from lower layer, vector(packetBytes)"
vector 329 FanetSybilNormale.host[10].wlan[0].mac passedUpPk:vector(packetBytes) ETV
attr interpolationmode none
attr source packetSentToUpper
attr title "packets passed to higher layer, vector(packetBytes)"
vector 330 FanetSybilNormale.host[20].wlan[0].mac rcvdPkFromLl:vector(packetBytes) ETV
attr interpolationmode none
attr source packetReceivedFromLower
attr title "packets received from lower layer, vector(packetBytes)"
vector 331 FanetSybilNormale.host[20].wlan[0].mac passedUpPk:vector(packetBytes) ETV
attr interpolationmode none
attr source packetSentToUpper
attr title "packets passed to higher layer, vector(packetBytes)"
vector 332 FanetSybilNormale.attacker[15].wlan[0].mac rcvdPkFromLl:vector(packetBytes) ETV
attr interpolationmode none
attr source packetReceivedFromLower
attr title "packets received from lower layer, vector(packetBytes)"
vector 333 FanetSybilNormale.attacker[15].wlan[0].mac passedUpPk:vector(packetBytes) ETV
attr interpolationmode none
attr source packetSentToUpper
attr title "packets passed to higher layer, vector(packetBytes)"
vector 334 FanetSybilNormale.host[23].wlan[0].mac rcvdPkFromHl:vector(packetBytes) ETV
attr interpolationmode none
attr source packetReceivedFromUpper
attr title "packets received from higher layer, vector(packetBytes)"
vector 335 FanetSybilNormale.host[23].wlan[0].mac.queue packetPushed:vector(packetBytes) ETV
attr interpolationmode none
attr title "packet pushed, vector(packetBytes)"
vector 336 FanetSybilNormale.host[23].wlan[0].mac.queue queueLength:vector ETV
attr interpolationmode sample-hold
attr source "count(packetPushed) - count(packetPopped) - count(packetRemoved) - count(packetDropped)"
attr title "queue length, vector"
vector 337 FanetSybilNormale.host[23].wlan[0].mac.queue packetPopped:vector(packetBytes) ETV
attr interpolationmode none
attr title "packet popped, vector(packetBytes)"
vector 338 FanetSybilNormale.host[23].wlan[0].mac.queue queueingTime:vector ETV
attr interpolationmode none
attr source queueingTime(packetPopped)
attr title "queueing times, vector"
attr unit s
vector 339 FanetSybilNormale.host[23].wlan[0].mac sentDownPk:vector(packetBytes) ETV
attr interpolationmode none
attr source packetSentToLower
attr title "packets sent to lower layer, vector(packetBytes)"
vector 340 FanetSybilNormale.host[11].wlan[0].mac rcvdPkFromLl:vector(packetBytes) ETV
attr interpolationmode none
attr source packetReceivedFromLower
attr title "packets received from lower layer, vector(packetBytes)"
vector 341 FanetSybilNormale.host[11].wlan[0].mac passedUpPk:vector(packetBytes) ETV
attr interpolationmode none
attr source packetSentToUpper
attr title "packets passed to higher layer, vector(packetBytes)"
vector 342 FanetSybilNormale.attacker[15].wlan[0].mac rcvdPkFromHl:vector(packetBytes) ETV
attr interpolationmode none
attr source packetReceivedFromUpper
attr title "packets received from higher layer, vector(packetBytes)"
vector 343 FanetSybilNormale.attacker[15].wlan[0].mac.queue packetPushed:vector(packetBytes) ETV
attr interpolationmode none
attr title "packet pushed, vector(packetBytes)"
vector 344 FanetSybilNormale.attacker[15].wlan[0].mac.queue queueLength:vector ETV
attr interpolationmode sample-hold
attr source "count(packetPushed) - count(packetPopped) - count(packetRemoved) - count(packetDropped)"
attr title "queue length, vector"
vector 345 FanetSybilNormale.attacker[15].wlan[0].mac.queue packetPopped:vector(packetBytes) ETV
attr interpolationmode none
attr title "packet popped, vector(packetBytes)"
vector 346 FanetSybilNormale.attacker[15].wlan[0].mac.queue queueingTime:vector ETV
attr interpolationmode none
attr source queueingTime(packetPopped)
attr title "queueing times, vector"
attr unit s
vector 347 FanetSybilNormale.attacker[15].wlan[0].mac sentDownPk:vector(packetBytes) ETV
attr interpolationmode none
attr source packetSentToLower
attr title "packets sent to lower layer, vector(packetBytes)"
vector 348 FanetSybilNormale.host[22].wlan[0].mac rcvdPkFromHl:vector(packetBytes) ETV
attr interpolationmode none
attr source packetReceivedFromUpper
attr title "packets received from higher layer, vector(packetBytes)"
vector 349 FanetSybilNormale.host[22].wlan[0].mac.queue packetPushed:vector(packetBytes) ETV
attr interpolationmode none
attr title "packet pushed, vector(packetBytes)"
vector 350 FanetSybilNormale.host[22].wlan[0].mac.queue queueLength:vector ETV
attr interpolationmode sample-hold
attr source "count(packetPushed) - count(packetPopped) - count(packetRemoved) - count(packetDropped)"
attr title "queue length, vector"
vector 351 FanetSybilNormale.host[22].wlan[0].mac.queue packetPopped:vector(packetBytes) ETV
attr interpolationmode none
attr title "packet popped, vector(packetBytes)"
vector 352 FanetSybilNormale.host[22].wlan[0].mac.queue queueingTime:vector ETV
attr interpolationmode none
attr source queueingTime(packetPopped)
attr title "queueing times, vector"
attr unit s
vector 353 FanetSybilNormale.host[22].wlan[0].mac sentDownPk:vector(packetBytes) ETV
attr interpolationmode none
attr source packetSentToLower
attr title "packets sent to lower layer, vector(packetBytes)"
vector 354 FanetSybilNormale.host[13].wlan[0].mac rcvdPkFromLl:vector(packetBytes) ETV
attr interpolationmode none
attr source packetReceivedFromLower
attr title "packets received from lower layer, vector(packetBytes)"
vector 355 FanetSybilNormale.host[13].wlan[0].mac passedUpPk:vector(packetBytes) ETV
attr interpolationmode none
attr source packetSentToUpper
attr title "packets passed to higher layer, vector(packetBytes)"
vector 356 FanetSybilNormale.host[6].wlan[0].mac rcvdPkFromHl:vector(packetBytes) ETV
attr interpolationmode none
attr source packetReceivedFromUpper
attr title "packets received from higher layer, vector(packetBytes)"
vector 357 FanetSybilNormale.host[6].wlan[0].mac.queue packetPushed:vector(packetBytes) ETV
attr interpolationmode none
attr title "packet pushed, vector(packetBytes)"
vector 358 FanetSybilNormale.host[6].wlan[0].mac.queue queueLength:vector ETV
attr interpolationmode sample-hold
attr source "count(packetPushed) - count(packetPopped) - count(packetRemoved) - count(packetDropped)"
attr title "queue length, vector"
vector 359 FanetSybilNormale.host[6].wlan[0].mac.queue packetPopped:vector(packetBytes) ETV
attr interpolationmode none
attr title "packet popped, vector(packetBytes)"
vector 360 FanetSybilNormale.host[6].wlan[0].mac.queue queueingTime:vector ETV
attr interpolationmode none
attr source queueingTime(packetPopped)
attr title "queueing times, vector"
attr unit s
vector 361 FanetSybilNormale.host[6].wlan[0].mac sentDownPk:vector(packetBytes) ETV
attr interpolationmode none
attr source packetSentToLower
attr title "packets sent to lower layer, vector(packetBytes)"
vector 362 FanetSybilNormale.attacker[7].wlan[0].mac rcvdPkFromLl:vector(packetBytes) ETV
attr interpolationmode none
attr source packetReceivedFromLower
attr title "packets received from lower layer, vector(packetBytes)"
vector 363 FanetSybilNormale.attacker[7].wlan[0].mac passedUpPk:vector(packetBytes) ETV
attr interpolationmode none
attr source packetSentToUpper
attr title "packets passed to higher layer, vector(packetBytes)"
vector 364 FanetSybilNormale.host[0].wlan[0].mac rcvdPkFromHl:vector(packetBytes) ETV
attr interpolationmode none
attr source packetReceivedFromUpper
attr title "packets received from higher layer, vector(packetBytes)"
vector 365 FanetSybilNormale.host[0].wlan[0].mac.queue packetPushed:vector(packetBytes) ETV
attr interpolationmode none
attr title "packet pushed, vector(packetBytes)"
vector 366 FanetSybilNormale.host[0].wlan[0].mac.queue queueLength:vector ETV
attr interpolationmode sample-hold
attr source "count(packetPushed) - count(packetPopped) - count(packetRemoved) - count(packetDropped)"
attr title "queue length, vector"
vector 367 FanetSybilNormale.host[0].wlan[0].mac.queue packetPopped:vector(packetBytes) ETV
attr interpolationmode none
attr title "packet popped, vector(packetBytes)"
vector 368 FanetSybilNormale.host[0].wlan[0].mac.queue queueingTime:vector ETV
attr interpolationmode none
attr source queueingTime(packetPopped)
attr title "queueing times, vector"
attr unit s
vector 369 FanetSybilNormale.host[0].wlan[0].mac sentDownPk:vector(packetBytes) ETV
attr interpolationmode none
attr source packetSentToLower
attr title "packets sent to lower layer, vector(packetBytes)"
vector 370 FanetSybilNormale.host[24].wlan[0].mac rcvdPkFromHl:vector(packetBytes) ETV
attr interpolationmode none
attr source packetReceivedFromUpper
attr title "packets received from higher layer, vector(packetBytes)"
vector 371 FanetSybilNormale.host[24].wlan[0].mac.queue packetPushed:vector(packetBytes) ETV
attr interpolationmode none
attr title "packet pushed, vector(packetBytes)"
vector 372 FanetSybilNormale.host[24].wlan[0].mac.queue queueLength:vector ETV
attr interpolationmode sample-hold
attr source "count(packetPushed) - count(packetPopped) - count(packetRemoved) - count(packetDropped)"
attr title "queue length, vector"
vector 373 FanetSybilNormale.host[24].wlan[0].mac.queue packetPopped:vector(packetBytes) ETV
attr interpolationmode none
attr title "packet popped, vector(packetBytes)"
vector 374 FanetSybilNormale.host[24].wlan[0].mac.queue queueingTime:vector ETV
attr interpolationmode none
attr source queueingTime(packetPopped)
attr title "queueing times, vector"
attr unit s
vector 375 FanetSybilNormale.host[24].wlan[0].mac sentDownPk:vector(packetBytes) ETV
attr interpolationmode none
attr source packetSentToLower
attr title "packets sent to lower layer, vector(packetBytes)"
vector 376 FanetSybilNormale.host[1].wlan[0].mac rcvdPkFromHl:vector(packetBytes) ETV
attr interpolationmode none
attr source packetReceivedFromUpper
attr title "packets received from higher layer, vector(packetBytes)"
vector 377 FanetSybilNormale.host[1].wlan[0].mac.queue packetPushed:vector(packetBytes) ETV
attr interpolationmode none
attr title "packet pushed, vector(packetBytes)"
vector 378 FanetSybilNormale.host[1].wlan[0].mac.queue queueLength:vector ETV
attr interpolationmode sample-hold
[...]
604	608833	393.8	0
604	608833	393.9	0
604	608833	394	0
604	608833	394.1	0
604	608833	394.2	0
604	608833	394.3	0
604	608833	394.4	0
604	608833	394.5	0
604	608833	394.6	0
604	608833	394.7	0
604	608833	394.8	0
604	608833	394.9	0
604	608833	395	0
604	608833	395.1	0
604	608833	395.2	0
604	608833	395.3	0
604	608833	395.4	0
604	608833	395.5	0
604	608833	395.6	0
604	608833	395.7	0
604	608833	395.8	0
604	608833	395.9	0
604	608833	396	0
604	608833	396.1	0
604	608833	396.2	0
604	608833	396.3	0
604	608833	396.4	0
604	608833	396.5	0
604	608833	396.6	0
604	608833	396.7	0
604	608833	396.8	0
604	608833	396.9	0
604	608833	397	0
604	608833	397.1	0
604	608833	397.2	0
604	608833	397.3	0
604	608833	397.4	0
604	608833	397.5	0
604	608833	397.6	0
604	608833	397.7	0
604	608833	397.8	0
604	608833	397.9	0
604	608833	398	0
604	608833	398.1	0
604	608833	398.2	0
604	608833	398.3	0
604	608833	398.4	0
604	608833	398.5	0
604	608833	398.6	0
604	608833	398.7	0
604	608833	398.8	0
604	608833	398.9	0
604	608833	399	0
604	608833	399.1	0
604	608833	399.2	0
604	608833	399.3	0
604	608833	399.4	0
604	608833	399.5	0
604	608833	399.6	0
604	608833	399.7	0
604	608833	399.8	0
604	608833	399.9	0
604	608833	400	0
604	608833	400.1	0
604	608833	400.2	0
604	608833	400.3	0
604	608833	400.4	0
604	608833	400.5	0
604	608833	400.6	0
604	608833	400.7	0
604	608833	400.8	0
604	608833	400.9	0
604	608833	401	0
604	608833	401.1	0
604	608833	401.2	0
604	608833	401.3	0
604	608833	401.4	0
604	608833	401.5	0
604	608833	401.6	0
604	608833	401.7	0
604	608833	401.8	0
604	608833	401.9	0
604	608833	402	0
604	608833	402.1	0
604	608833	402.2	0
604	608833	402.3	0
604	608833	402.4	0
604	608833	402.5	0
604	608833	402.6	0
604	608833	402.7	0
604	608833	402.8	0
604	608833	402.9	0
604	608833	403	0
604	608833	403.1	0
604	608833	403.2	0
604	608833	403.3	0
604	608833	403.4	0
604	608833	403.5	0
604	608833	403.6	0
604	608833	403.7	0
604	608833	403.8	0
604	608833	403.9	0
604	608833	404	0
604	608833	404.1	0
604	608833	404.2	0
604	608833	404.3	0
604	608833	404.4	0
604	608833	404.5	0
604	608833	404.6	0
604	608833	404.7	0
604	608833	404.8	0
604	608833	404.9	0
604	608833	405	0
604	608833	405.1	0
604	608833	405.2	0
604	608833	405.3	0
604	608833	405.4	0
604	608833	405.5	0
604	608833	405.6	0
604	608833	405.7	0
604	608833	405.8	0
604	608833	405.9	0
604	608833	406	0
604	608833	406.1	0
604	608833	406.2	0
604	608833	406.3	0
604	608833	406.4	0
604	608833	406.5	0
604	608833	406.6	0
604	608833	406.7	0
604	608833	406.8	0
604	608833	406.9	0
604	608833	407	0
604	608833	407.1	0
604	608833	407.2	0
604	608833	407.3	0
604	608833	407.4	0
604	608833	407.5	0
604	608833	407.6	0
604	608833	407.7	0
604	608833	407.8	0
604	608833	407.9	0
604	608833	408	0
604	608833	408.1	0
604	608833	408.2	0
604	608833	408.3	0
604	608833	408.4	0
604	608833	408.5	0
604	608833	408.6	0
604	608833	408.7	0
604	608833	408.8	0
604	608833	408.9	0
604	608833	409	0
604	608833	409.1	0
604	608833	409.2	0
604	608833	409.3	0
604	608833	409.4	0
604	608833	409.5	0
604	608833	409.6	0
604	608833	409.7	0
604	608833	409.8	0
604	608833	409.9	0
604	608833	410	0
604	608833	410.1	0
604	608833	410.2	0
604	608833	410.3	0
604	608833	410.4	0
604	608833	410.5	0
604	608833	410.6	0
604	608833	410.7	0
604	608833	410.8	0
604	608833	410.9	0
604	608833	411	0
604	608833	411.1	0
604	608833	411.2	0
604	608833	411.3	0
604	608833	411.4	0
604	608833	411.5	0
604	608833	411.6	0
604	608833	411.7	0
604	608833	411.8	0
604	608833	411.9	0
604	608833	412	0
604	608833	412.1	0
604	608833	412.2	0
604	608833	412.3	0
604	608833	412.4	0
604	608833	412.5	0
604	608833	412.6	0
604	608833	412.7	0
604	608833	412.8	0
604	608833	412.9	0
604	608833	413	0
604	608833	413.1	0
604	608833	413.2	0
604	608833	413.3	0
604	608833	413.4	0
604	608833	413.5	0
604	608833	413.6	0
604	608833	413.7	0
604	608833	413.8	0
604	608833	413.9	0
604	608833	414	0
604	608833	414.1	0
604	608833	414.2	0
604	608833	414.3	0
604	608833	414.4	0
604	608833	414.5	0
604	608833	414.6	0
604	608833	414.7	0
604	608833	414.8	0
604	608833	414.9	0
604	608833	415	0
604	608833	415.1	0
604	608833	415.2	0
604	608833	415.3	0
604	608833	415.4	0
604	608833	415.5	0
604	608833	415.6	0
604	608833	415.7	0
604	608833	415.8	0
604	608833	415.9	0
604	608833	416	0
604	608833	416.1	0
604	608833	416.2	0
604	608833	416.3	0
604	608833	416.4	0
604	608833	416.5	0
604	608833	416.6	0
604	608833	416.7	0
604	608833	416.8	0
604	608833	416.9	0
604	608833	417	0
604	608833	417.1	0
604	608833	417.2	0
604	608833	417.3	0
604	608833	417.4	0
604	608833	417.5	0
604	608833	417.6	0
604	608833	417.7	0
604	608833	417.8	0
604	608833	417.9	0
604	608833	418	0
604	608833	418.1	0
604	608833	418.2	0
604	608833	418.3	0
604	608833	418.4	0
604	608833	418.5	0
604	608833	418.6	0
604	608833	418.7	0
604	608833	418.8	0
604	608833	418.9	0
604	608833	419	0
604	608833	419.1	0
604	608833	419.2	0
604	608833	419.3	0
604	608833	419.4	0
604	608833	419.5	0
604	608833	419.6	0
604	608833	419.7	0
604	608833	419.8	0
604	608833	419.9	0
604	608833	420	0
604	608833	420.1	0
604	608833	420.2	0
604	608833	420.3	0
604	608833	420.4	0
604	608833	420.5	0
604	608833	420.6	0
604	608833	420.7	0
604	608833	420.8	0
604	608833	420.9	0
604	608833	421	0
604	608833	421.1	0
604	608833	421.2	0
604	608833	421.3	0
604	608833	421.4	0
604	608833	421.5	0
604	608833	421.6	0
604	608833	421.7	0
604	608833	421.8	0
604	608833	421.9	0
604	608833	422	0
604	608833	422.1	0
604	608833	422.2	0
604	608833	422.3	0
604	608833	422.4	0
604	608833	422.5	0
604	608833	422.6	0
604	608833	422.7	0
604	608833	422.8	0
604	608833	422.9	0
604	608833	423	0
604	608833	423.1	0
604	608833	423.2	0
604	608833	423.3	0
604	608833	423.4	0
604	608833	423.5	0
604	608833	423.6	0
604	608833	423.7	0
604	608833	423.8	0
604	608833	423.9	0
604	608833	424	0
604	608833	424.1	0
604	608833	424.2	0
604	608833	424.3	0
604	608833	424.4	0
604	608833	424.5	0
604	608833	424.6	0
604	608833	424.7	0
604	608833	424.8	0
604	608833	424.9	0
604	608833	425	0
604	608833	425.1	0
604	608833	425.2	0
604	608833	425.3	0
604	608833	425.4	0
604	608833	425.5	0
604	608833	425.6	0
604	608833	425.7	0
604	608833	425.8	0
604	608833	425.9	0
604	608833	426	0
604	608833	426.1	0
604	608833	426.2	0
604	608833	426.3	0
604	608833	426.4	0
604	608833	426.5	0
604	608833	426.6	0
604	608833	426.7	0
604	608833	426.8	0
604	608833	426.9	0
604	608833	427	0
604	608833	427.1	0
604	608833	427.2	0
604	608833	427.3	0
604	608833	427.4	0
604	608833	427.5	0
604	608833	427.6	0
604	608833	427.7	0
604	608833	427.8	0
604	608833	427.9	0
604	608833	428	0
604	608833	428.1	0
604	608833	428.2	0
604	608833	428.3	0
604	608833	428.4	0
604	608833	428.5	0
604	608833	428.6	0
604	608833	428.7	0
604	608833	428.8	0
604	608833	428.9	0
604	608833	429	0
604	608833	429.1	0
604	608833	429.2	0
604	608833	429.3	0
604	608833	429.4	0
604	608833	429.5	0
604	608833	429.6	0
604	608833	429.7	0
604	608833	429.8	0
604	608833	429.9	0
604	608833	430	0
604	608833	430.1	0
604	608833	430.2	0
604	608833	430.3	0
604	608833	430.4	0
604	608833	430.5	0
604	608833	430.6	0
604	608833	430.7	0
604	608833	430.8	0
604	608833	430.9	0
604	608833	431	0
604	608833	431.1	0
604	608833	431.2	0
604	608833	431.3	0
604	608833	431.4	0
604	608833	431.5	0
604	608833	431.6	0
604	608833	431.7	0
604	608833	431.8	0
604	608833	431.9	0
604	608833	432	0
604	608833	432.1	0
604	608833	432.2	0
604	608833	432.3	0
604	608833	432.4	0
604	608833	432.5	0
604	608833	432.6	0
604	608833	432.7	0
604	608833	432.8	0
604	608833	432.9	0
604	608833	433	0
604	608833	433.1	0
604	608833	433.2	0
604	608833	433.3	0
604	608833	433.4	0
604	608833	433.5	0
604	608833	433.6	0
604	608833	433.7	0
604	608833	433.8	0
604	608833	433.9	0
604	608833	434	0
604	608833	434.1	0
604	608833	434.2	0
604	608833	434.3	0
604	608833	434.4	0
604	608833	434.5	0
604	608833	434.6	0
604	608833	434.7	0
604	608833	434.8	0
604	608833	434.9	0
604	608833	435	0
604	608833	435.1	0
604	608833	435.2	0
604	608833	435.3	0
604	608833	435.4	0
604	608833	435.5	0
604	608833	435.6	0
604	608833	435.7	0
604	608833	435.8	0
604	608833	435.9	0
604	608833	436	0
604	608833	436.1	0
604	608833	436.2	0
604	608833	436.3	0
604	608833	436.4	0
604	608833	436.5	0
604	608833	436.6	0
604	608833	436.7	0
604	608833	436.8	0
604	608833	436.9	0
604	608833	437	0
604	608833	437.1	0
604	608833	437.2	0
604	608833	437.3	0
604	608833	437.4	0
604	608833	437.5	0
604	608833	437.6	0
604	608833	437.7	0
604	608833	437.8	0
604	608833	437.9	0
604	608833	438	0
604	608833	438.1	0
604	608833	438.2	0
604	608833	438.3	0
604	608833	438.4	0
604	608833	438.5	0
604	608833	438.6	0
604	608833	438.7	0
604	608833	438.8	0
604	608833	438.9	0
604	608833	439	0
604	608833	439.1	0
604	608833	439.2	0
604	608833	439.3	0
604	608833	439.4	0
604	608833	439.5	0
604	608833	439.6	0
604	608833	439.7	0
604	608833	439.8	0
604	608833	439.9	0
604	608833	440	0
604	608833	440.1	0
604	608833	440.2	0
604	608833	440.3	0
604	608833	440.4	0
604	608833	440.5	0
604	608833	440.6	0
604	608833	440.7	0
604	608833	440.8	0
604	608833	440.9	0
604	608833	441	0
604	608833	441.1	0
604	608833	441.2	0
604	608833	441.3	0
604	608833	441.4	0
604	608833	441.5	0
604	608833	441.6	0
604	608833	441.7	0
604	608833	441.8	0
604	608833	441.9	0
604	608833	442	0
604	608833	442.1	0
604	608833	442.2	0
604	608833	442.3	0
604	608833	442.4	0
604	608833	442.5	0
604	608833	442.6	0
604	608833	442.7	0
604	608833	442.8	0
604	608833	442.9	0
604	608833	443	0
604	608833	443.1	0
604	608833	443.2	0
604	608833	443.3	0
604	608833	443.4	0
604	608833	443.5	0
604	608833	443.6	0
604	608833	443.7	0
604	608833	443.8	0
604	608833	443.9	0
604	608833	444	0
604	608833	444.1	0
604	608833	444.2	0
604	608833	444.3	0
604	608833	444.4	0
604	608833	444.5	0
604	608833	444.6	0
604	608833	444.7	0
604	608833	444.8	0
604	608833	444.9	0
604	608833	445	0
604	608833	445.1	0
604	608833	445.2	0
604	608833	445.3	0
604	608833	445.4	0
604	608833	445.5	0
604	608833	445.6	0
604	608833	445.7	0
604	608833	445.8	0
604	608833	445.9	0
604	608833	446	0
604	608833	446.1	0
604	608833	446.2	0
604	608833	446.3	0
604	608833	446.4	0
604	608833	446.5	0
604	608833	446.6	0
604	608833	446.7	0
604	608833	446.8	0
604	608833	446.9	0
604	608833	447	0
604	608833	447.1	0
604	608833	447.2	0
604	608833	447.3	0
604	608833	447.4	0
604	608833	447.5	0
604	608833	447.6	0
604	608833	447.7	0
604	608833	447.8	0
604	608833	447.9	0
604	608833	448	0
604	608833	448.1	0
604	608833	448.2	0
604	608833	448.3	0
604	608833	448.4	0
604	608833	448.5	0
604	608833	448.6	0
604	608833	448.7	0
604	608833	448.8	0
604	608833	448.9	0
604	608833	449	0
604	608833	449.1	0
604	608833	449.2	0
604	608833	449.3	0
604	608833	449.4	0
604	608833	449.5	0
604	608833	449.6	0
604	608833	449.7	0
604	608833	449.8	0
604	608833	449.9	0
604	608833	450	0
604	608833	450.1	0
604	608833	450.2	0
604	608833	450.3	0
604	608833	450.4	0
604	608833	450.5	0
604	608833	450.6	0
604	608833	450.7	0
604	608833	450.8	0
604	608833	450.9	0
604	608833	451	0
604	608833	451.1	0
604	608833	451.2	0
604	608833	451.3	0
604	608833	451.4	0
604	608833	451.5	0
604	608833	451.6	0
604	608833	451.7	0
604	608833	451.8	0
604	608833	451.9	0
604	608833	452	0
604	608833	452.1	0
604	608833	452.2	0
604	608833	452.3	0
604	608833	452.4	0
604	608833	452.5	0
604	608833	452.6	0
604	608833	452.7	0
604	608833	452.8	0
604	608833	452.9	0
604	608833	453	0
604	608833	453.1	0
604	608833	453.2	0
604	608833	453.3	0
604	608833	453.4	0
604	608833	453.5	0
604	608833	453.6	0
604	608833	453.7	0
604	608833	453.8	0
604	608833	453.9	0
604	608833	454	0
604	608833	454.1	0
604	608833	454.2	0
604	608833	454.3	0
604	608833	454.4	0
604	608833	454.5	0
604	608833	454.6	0
604	608833	454.7	0
604	608833	454.8	0
604	608833	454.9	0
604	608833	455	0
604	608833	455.1	0
604	608833	455.2	0
604	608833	455.3	0
604	608833	455.4	0
604	608833	455.5	0
604	608833	455.6	0
604	608833	455.7	0
604	608833	455.8	0
604	608833	455.9	0
604	608833	456	0
604	608833	456.1	0
604	608833	456.2	0
604	608833	456.3	0
604	608833	456.4	0
604	608833	456.5	0
604	608833	456.6	0
604	608833	456.7	0
604	608833	456.8	0
604	608833	456.9	0
604	608833	457	0
604	608833	457.1	0
604	608833	457.2	0
604	608833	457.3	0
604	608833	457.4	0
604	608833	457.5	0
604	608833	457.6	0
604	608833	457.7	0
604	608833	457.8	0
604	608833	457.9	0
604	608833	458	0
604	608833	458.1	0
604	608833	458.2	0
604	608833	458.3	0
604	608833	458.4	0
604	608833	458.5	0
604	608833	458.6	0
604	608833	458.7	0
604	608833	458.8	0
604	608833	458.9	0
604	608833	459	0
604	608833	459.1	0
604	608833	459.2	0
604	608833	459.3	0
604	608833	459.4	0
604	608833	459.5	0
604	608833	459.6	0
604	608833	459.7	0
604	608833	459.8	0
604	608833	459.9	0
604	608833	460	0
604	608833	460.1	0
604	608833	460.2	0
604	608833	460.3	0
604	608833	460.4	0
604	608833	460.5	0
604	608833	460.6	0
604	608833	460.7	0
604	608833	460.8	0
604	608833	460.9	0
604	608833	461	0
604	608833	461.1	0
604	608833	461.2	0
604	608833	461.3	0
604	608833	461.4	0
604	608833	461.5	0
604	608833	461.6	0
604	608833	461.7	0
604	608833	461.8	0
604	608833	461.9	0
604	608833	462	0
604	608833	462.1	0
604	608833	462.2	0
604	608833	462.3	0
604	608833	462.4	0
604	608833	462.5	0
604	608833	462.6	0
604	608833	462.7	0
604	608833	462.8	0
604	608833	462.9	0
604	608833	463	0
604	608833	463.1	0
604	608833	463.2	0
604	608833	463.3	0
604	608833	463.4	0
604	608833	463.5	0
604	608833	463.6	0
604	608833	463.7	0
604	608833	463.8	0
604	608833	463.9	0
604	608833	464	0
604	608833	464.1	0
604	608833	464.2	0
604	608833	464.3	0
604	608833	464.4	0
604	608833	464.5	0
604	608833	464.6	0
604	608833	464.7	0
604	608833	464.8	0
604	608833	464.9	0
604	608833	465	0
604	608833	465.1	0
604	608833	465.2	0
604	608833	465.3	0
604	608833	465.4	0
604	608833	465.5	0
604	608833	465.6	0
604	608833	465.7	0
604	608833	465.8	0
604	608833	465.9	0
604	608833	466	0
604	608833	466.1	0
604	608833	466.2	0
604	608833	466.3	0
604	608833	466.4	0
604	608833	466.5	0
604	608833	466.6	0
604	608833	466.7	0
604	608833	466.8	0
604	608833	466.9	0
604	608833	467	0
604	608833	467.1	0
604	608833	467.2	0
604	608833	467.3	0
604	608833	467.4	0
604	608833	467.5	0
604	608833	467.6	0
604	608833	467.7	0
604	608833	467.8	0
604	608833	467.9	0
604	608833	468	0
604	608833	468.1	0
604	608833	468.2	0
604	608833	468.3	0
604	608833	468.4	0
604	608833	468.5	0
604	608833	468.6	0
604	608833	468.7	0
604	608833	468.8	0
604	608833	468.9	0
604	608833	469	0
604	608833	469.1	0
604	608833	469.2	0
604	608833	469.3	0
604	608833	469.4	0
604	608833	469.5	0
604	608833	469.6	0
604	608833	469.7	0
604	608833	469.8	0
604	608833	469.9	0
604	608833	470	0
604	608833	470.1	0
604	608833	470.2	0
604	608833	470.3	0
604	608833	470.4	0
604	608833	470.5	0
604	608833	470.6	0
604	608833	470.7	0
604	608833	470.8	0
604	608833	470.9	0
604	608833	471	0
604	608833	471.1	0
604	608833	471.2	0
604	608833	471.3	0
604	608833	471.4	0
604	608833	471.5	0
604	608833	471.6	0
604	608833	471.7	0
604	608833	471.8	0
604	608833	471.9	0
604	608833	472	0
604	608833	472.1	0
604	608833	472.2	0
604	608833	472.3	0
604	608833	472.4	0
604	608833	472.5	0
604	608833	472.6	0
604	608833	472.7	0
604	608833	472.8	0
604	608833	472.9	0
604	608833	473	0
604	608833	473.1	0
604	608833	473.2	0
604	608833	473.3	0
604	608833	473.4	0
604	608833	473.5	0
604	608833	473.6	0
604	608833	473.7	0
604	608833	473.8	0
604	608833	473.9	0
604	608833	474	0
604	608833	474.1	0
604	608833	474.2	0
604	608833	474.3	0
604	608833	474.4	0
604	608833	474.5	0
604	608833	474.6	0
604	608833	474.7	0
604	608833	474.8	0
604	608833	474.9	0
604	608833	475	0
604	608833	475.1	0
604	608833	475.2	0
604	608833	475.3	0
604	608833	475.4	0
604	608833	475.5	0
604	608833	475.6	0
604	608833	475.7	0
604	608833	475.8	0
604	608833	475.9	0
604	608833	476	0
604	608833	476.1	0
604	608833	476.2	0
604	608833	476.3	0
604	608833	476.4	0
604	608833	476.5	0
604	608833	476.6	0
604	608833	476.7	0
604	608833	476.8	0
604	608833	476.9	0
604	608833	477	0
604	608833	477.1	0
604	608833	477.2	0
604	608833	477.3	0
604	608833	477.4	0
604	608833	477.5	0
604	608833	477.6	0
604	608833	477.7	0
604	608833	477.8	0
604	608833	477.9	0
604	608833	478	0
604	608833	478.1	0
604	608833	478.2	0
604	608833	478.3	0
604	608833	478.4	0
604	608833	478.5	0
604	608833	478.6	0
604	608833	478.7	0
604	608833	478.8	0
604	608833	478.9	0
604	608833	479	0
604	608833	479.1	0
604	608833	479.2	0
604	608833	479.3	0
604	608833	479.4	0
604	608833	479.5	0
604	608833	479.6	0
604	608833	479.7	0
604	608833	479.8	0
604	608833	479.9	0
604	608833	480	0
604	608833	480.1	0
604	608833	480.2	0
604	608833	480.3	0
604	608833	480.4	0
604	608833	480.5	0
604	608833	480.6	0
604	608833	480.7	0
604	608833	480.8	0
604	608833	480.9	0
604	608833	481	0
604	608833	481.1	0
604	608833	481.2	0
604	608833	481.3	0
604	608833	481.4	0
604	608833	481.5	0
604	608833	481.6	0
604	608833	481.7	0
604	608833	481.8	0
604	608833	481.9	0
604	608833	482	0
604	608833	482.1	0
604	608833	482.2	0
604	608833	482.3	0
604	608833	482.4	0
604	608833	482.5	0
604	608833	482.6	0
604	608833	482.7	0
604	608833	482.8	0
604	608833	482.9	0
604	608833	483	0
604	608833	483.1	0
604	608833	483.2	0
604	608833	483.3	0
604	608833	483.4	0
604	608833	483.5	0
604	608833	483.6	0
604	608833	483.7	0
604	608833	483.8	0
604	608833	483.9	0
604	608833	484	0
604	608833	484.1	0
604	608833	484.2	0
604	608833	484.3	0
604	608833	484.4	0
604	608833	484.5	0
604	608833	484.6	0
604	608833	484.7	0
604	608833	484.8	0
604	608833	484.9	0
604	608833	485	0
604	608833	485.1	0
604	608833	485.2	0
604	608833	485.3	0
604	608833	485.4	0
604	608833	485.5	0
604	608833	485.6	0
604	608833	485.7	0
604	608833	485.8	0
604	608833	485.9	0
604	608833	486	0
604	608833	486.1	0
604	608833	486.2	0
604	608833	486.3	0
604	608833	486.4	0
604	608833	486.5	0
604	608833	486.6	0
604	608833	486.7	0
604	608833	486.8	0
604	608833	486.9	0
604	608833	487	0
604	608833	487.1	0
604	608833	487.2	0
604	608833	487.3	0
604	608833	487.4	0
604	608833	487.5	0
604	608833	487.6	0
604	608833	487.7	0
604	608833	487.8	0
604	608833	487.9	0
604	608833	488	0
604	608833	488.1	0
604	608833	488.2	0
604	608833	488.3	0
604	608833	488.4	0
604	608833	488.5	0
604	608833	488.6	0
604	608833	488.7	0
604	608833	488.8	0
604	608833	488.9	0
604	608833	489	0
604	608833	489.1	0
604	608833	489.2	0
604	608833	489.3	0
604	608833	489.4	0
604	608833	489.5	0
604	608833	489.6	0
604	608833	489.7	0
604	608833	489.8	0
604	608833	489.9	0
604	608833	490	0
604	608833	490.1	0
604	608833	490.2	0
604	608833	490.3	0
604	608833	490.4	0
604	608833	490.5	0
604	608833	490.6	0
604	608833	490.7	0
604	608833	490.8	0
604	608833	490.9	0
604	608833	491	0
604	608833	491.1	0
604	608833	491.2	0
604	608833	491.3	0
604	608833	491.4	0
604	608833	491.5	0
604	608833	491.6	0
604	608833	491.7	0
604	608833	491.8	0
604	608833	491.9	0
604	608833	492	0
604	608833	492.1	0
604	608833	492.2	0
604	608833	492.3	0
604	608833	492.4	0
604	608833	492.5	0
604	608833	492.6	0
604	608833	492.7	0
604	608833	492.8	0
604	608833	492.9	0
604	608833	493	0
604	608833	493.1	0
604	608833	493.2	0
604	608833	493.3	0
604	608833	493.4	0
604	608833	493.5	0
604	608833	493.6	0
604	608833	493.7	0
604	608833	493.8	0
604	608833	493.9	0
604	608833	494	0
604	608833	494.1	0
604	608833	494.2	0
604	608833	494.3	0
604	608833	494.4	0
604	608833	494.5	0
604	608833	494.6	0
604	608833	494.7	0
604	608833	494.8	0
604	608833	494.9	0
604	608833	495	0
604	608833	495.1	0
604	608833	495.2	0
604	608833	495.3	0
604	608833	495.4	0
604	608833	495.5	0
604	608833	495.6	0
604	608833	495.7	0
604	608833	495.8	0
604	608833	495.9	0
604	608833	496	0
604	608833	496.1	0
604	608833	496.2	0
604	608833	496.3	0
604	608833	496.4	0
604	608833	496.5	0
604	608833	496.6	0
604	608833	496.7	0
604	608833	496.8	0
604	608833	496.9	0
604	608833	497	0
604	608833	497.1	0
604	608833	497.2	0
604	608833	497.3	0
604	608833	497.4	0
604	608833	497.5	0
604	608833	497.6	0
604	608833	497.7	0
604	608833	497.8	0
604	608833	497.9	0
604	608833	498	0
604	608833	498.1	0
604	608833	498.2	0
604	608833	498.3	0
604	608833	498.4	0
604	608833	498.5	0
604	608833	498.6	0
604	608833	498.7	0
604	608833	498.8	0
604	608833	498.9	0
604	608833	499	0
604	608833	499.1	0
604	608833	499.2	0
604	608833	499.3	0
604	608833	499.4	0
604	608833	499.5	0
604	608833	499.6	0
604	608833	499.7	0
604	608833	499.8	0
604	608833	499.9	0
604	608833	500	0

