file 41938075 1657638587                                        
version 2
run SybilAttack-0-20220712-17:07:03-59280
attr configname SybilAttack
attr datetime 20220712-17:07:03
attr experiment SybilAttack
attr inifile omnetpp.ini
attr iterationvars ""
attr iterationvarsf ""
attr measurement ""
attr network FanetSybilNormale
attr processid 59280
attr repetition 0
attr replication #0
attr resultdir results
attr runnumber 0
attr seedset 0
param *.host[0].numApps 1
param *.host[0].app[0].typename "\"UdpBasicApp\""
param *.host[0].app[0].startTime 15s
param *.host[0].app[0].destAddresses "\"host[20] host[1]\""
param *.host[0].app[0].destPort 5000
param *.host[0].app[0].messageLength 1024B
param *.host[0].app[0].sendInterval exponential(1s)
param *.host[0].app[0].packetName "\"UDPdata\""
param *.host[20].numApps 1
param *.host[20].app[0].typename "\"UdpSink\""
param *.host[20].app[0].localPort 5000
param *.host[1].numApps 1
param *.host[1].app[0].typename "\"UdpSink\""
param *.host[1].app[0].localPort 5000
param **.wlan[*].bitrate 24Mbps
param *.configurator.addStaticRoutes false
param **.netmaskRoutes "\"\""
param **.arp.typename "\"GlobalArp\""
param *.host*.wlan[0].typename "\"AckingWirelessInterface\""
param *.host*.wlan[0].radio.transmitter.communicationRange 300m
param *.host*.wlan[0].radio.displayCommunicationRange false
param *.visualizer.osgVisualizer.typename "\"IntegratedOsgVisualizer\""
param *.visualizer.osgVisualizer.sceneVisualizer.clearColor "\"skyblue\""
param *.visualizer.osgVisualizer.sceneVisualizer.sceneImage "\"showcases/desert\""
param *.visualizer.osgVisualizer.sceneVisualizer.sceneImageSize 5000m
param *.visualizer.osgVisualizer.sceneVisualizer.axisLength 1000m
param *.visualizer.osgVisualizer.sceneVisualizer.sceneMinX -2000m
param *.visualizer.osgVisualizer.sceneVisualizer.sceneMinY -2000m
param *.visualizer.osgVisualizer.sceneVisualizer.sceneMinZ 0m
param *.visualizer.osgVisualizer.sceneVisualizer.sceneMaxX 3000m
param *.visualizer.osgVisualizer.sceneVisualizer.sceneMaxY 3000m
param *.visualizer.osgVisualizer.sceneVisualizer.sceneMaxZ 1000m
param *.visualizer.osgVisualizer.networkNodeVisualizer.displayModuleName false
param *.visualizer.*.mobilityVisualizer.displayMobility true
param *.visualizer.*.mobilityVisualizer.displayPositions true
param *.visualizer.*.mobilityVisualizer.displayOrientations false
param *.visualizer.*.mobilityVisualizer.displayVelocities true
param *.visualizer.*.mobilityVisualizer.displayMovementTrails true
param *.visualizer.*.mobilityVisualizer.animationSpeed 1
param *.visualizer.*.packetDropVisualizer.displayPacketDrops false
param *.visualizer.*.packetDropVisualizer.labelFormat "\"%n/reason: %r\""
param *.visualizer.*.packetDropVisualizer.fadeOutTime 10s
param **.constraintAreaMinX 0m
param **.constraintAreaMinY 0m
param **.constraintAreaMinZ 50m
param **.constraintAreaMaxX 1000m
param **.constraintAreaMaxY 800m
param **.constraintAreaMaxZ 200m
param *.visualizer.*.mediumVisualizer.signalPropagationAnimationSpeed 500/3e8
param *.visualizer.*.mediumVisualizer.signalTransmissionAnimationSpeed 50000/3e8
param *.visualizer.*.mediumVisualizer.displaySignals false
param *.visualizer.*.mediumVisualizer.displayTransmissions false
param *.visualizer.*.mediumVisualizer.displayReceptions false
param *.visualizer.*.mediumVisualizer.transmissionPlacementPriority 10
param *.visualizer.*.mediumVisualizer.receptionPlacementPriority 10
param *.visualizer.*.mediumVisualizer.displaySignals false
param *.visualizer.*.mediumVisualizer.signalFadingDistance 50m
param *.visualizer.*.mediumVisualizer.signalRingSize 50m
param *.visualizer.osgVisualizer.mediumVisualizer.signalShape "\"both\""
param *.host[*].osgModel "\"3d/drone.ive.100.scale.0,0,90.rot\""
param *.attacker[*].osgModel "\"3d/drone.ive.100.scale.0,0,90.rot\""
param *.host[*].mobility.typename "\"TurtleMobility\""
param *.attacker[*].mobility.typename "\"TurtleMobility\""
param *.attacker[*].mobility.turtleScript "xmldoc(\"movements.xml\")"
param *.host[*].mobility.turtleScript "xmldoc(\"movements.xml\")"
param *.attacker*.wlan[0].typename "\"AckingWirelessInterface\""
param *.attacker*.wlan[0].radio.transmitter.communicationRange 300m
param *.attacker*.wlan[0].radio.displayCommunicationRange false
param *.host*.wlan[0].radio.energyConsumer.typename "\"StateBasedEpEnergyConsumer\""
param *.attacker*.wlan[0].radio.energyConsumer.typename "\"StateBasedEpEnergyConsumer\""
param *.host[*].wlan[*].radio.energyConsumer.typename "\"StateBasedEpEnergyConsumer\""
param *.host[*].wlan[*].radio.energyConsumer.sleepPowerConsumption 0mW
param *.host[*].wlan[*].radio.energyConsumer.receiverIdlePowerConsumption 0mW
param *.host[*].wlan[*].radio.energyConsumer.receiverReceivingPowerConsumption 284.1176428806229mW
param *.host[*].wlan[*].radio.energyConsumer.transmitterIdlePowerConsumption 0mW
param *.host[*].wlan[*].radio.energyConsumer.transmitterTransmittingPowerConsumption 407.6470528287198mW
param *.host*.energyStorage.typename "\"IdealEpEnergyStorage\""
param *.attacker*.energyStorage.typename "\"IdealEpEnergyStorage\""

vector 0 FanetSybilNormale.host[0].energyStorage powerConsumption:vector ETV
attr interpolationmode sample-hold
attr source powerConsumptionChanged
attr title "Power consumption, vector"
vector 1 FanetSybilNormale.host[1].energyStorage powerConsumption:vector ETV
attr interpolationmode sample-hold
attr source powerConsumptionChanged
attr title "Power consumption, vector"
vector 2 FanetSybilNormale.host[2].energyStorage powerConsumption:vector ETV
attr interpolationmode sample-hold
attr source powerConsumptionChanged
attr title "Power consumption, vector"
vector 3 FanetSybilNormale.host[3].energyStorage powerConsumption:vector ETV
attr interpolationmode sample-hold
attr source powerConsumptionChanged
attr title "Power consumption, vector"
vector 4 FanetSybilNormale.host[4].energyStorage powerConsumption:vector ETV
attr interpolationmode sample-hold
attr source powerConsumptionChanged
attr title "Power consumption, vector"
vector 5 FanetSybilNormale.host[5].energyStorage powerConsumption:vector ETV
attr interpolationmode sample-hold
attr source powerConsumptionChanged
attr title "Power consumption, vector"
vector 6 FanetSybilNormale.host[6].energyStorage powerConsumption:vector ETV
attr interpolationmode sample-hold
attr source powerConsumptionChanged
attr title "Power consumption, vector"
vector 7 FanetSybilNormale.host[7].energyStorage powerConsumption:vector ETV
attr interpolationmode sample-hold
attr source powerConsumptionChanged
attr title "Power consumption, vector"
vector 8 FanetSybilNormale.host[8].energyStorage powerConsumption:vector ETV
attr interpolationmode sample-hold
attr source powerConsumptionChanged
attr title "Power consumption, vector"
vector 9 FanetSybilNormale.host[9].energyStorage powerConsumption:vector ETV
attr interpolationmode sample-hold
attr source powerConsumptionChanged
attr title "Power consumption, vector"
vector 10 FanetSybilNormale.host[10].energyStorage powerConsumption:vector ETV
attr interpolationmode sample-hold
attr source powerConsumptionChanged
attr title "Power consumption, vector"
vector 11 FanetSybilNormale.host[11].energyStorage powerConsumption:vector ETV
attr interpolationmode sample-hold
attr source powerConsumptionChanged
attr title "Power consumption, vector"
vector 12 FanetSybilNormale.host[12].energyStorage powerConsumption:vector ETV
attr interpolationmode sample-hold
attr source powerConsumptionChanged
attr title "Power consumption, vector"
vector 13 FanetSybilNormale.host[13].energyStorage powerConsumption:vector ETV
attr interpolationmode sample-hold
attr source powerConsumptionChanged
attr title "Power consumption, vector"
vector 14 FanetSybilNormale.host[14].energyStorage powerConsumption:vector ETV
attr interpolationmode sample-hold
attr source powerConsumptionChanged
attr title "Power consumption, vector"
vector 15 FanetSybilNormale.host[15].energyStorage powerConsumption:vector ETV
attr interpolationmode sample-hold
attr source powerConsumptionChanged
attr title "Power consumption, vector"
vector 16 FanetSybilNormale.host[16].energyStorage powerConsumption:vector ETV
attr interpolationmode sample-hold
attr source powerConsumptionChanged
attr title "Power consumption, vector"
vector 17 FanetSybilNormale.host[17].energyStorage powerConsumption:vector ETV
attr interpolationmode sample-hold
attr source powerConsumptionChanged
attr title "Power consumption, vector"
vector 18 FanetSybilNormale.host[18].energyStorage powerConsumption:vector ETV
attr interpolationmode sample-hold
attr source powerConsumptionChanged
attr title "Power consumption, vector"
vector 19 FanetSybilNormale.host[19].energyStorage powerConsumption:vector ETV
attr interpolationmode sample-hold
attr source powerConsumptionChanged
attr title "Power consumption, vector"
vector 20 FanetSybilNormale.host[20].energyStorage powerConsumption:vector ETV
attr interpolationmode sample-hold
attr source powerConsumptionChanged
attr title "Power consumption, vector"
vector 21 FanetSybilNormale.host[21].energyStorage powerConsumption:vector ETV
attr interpolationmode sample-hold
attr source powerConsumptionChanged
attr title "Power consumption, vector"
vector 22 FanetSybilNormale.host[22].energyStorage powerConsumption:vector ETV
attr interpolationmode sample-hold
attr source powerConsumptionChanged
attr title "Power consumption, vector"
vector 23 FanetSybilNormale.host[23].energyStorage powerConsumption:vector ETV
attr interpolationmode sample-hold
attr source powerConsumptionChanged
attr title "Power consumption, vector"
vector 24 FanetSybilNormale.host[24].energyStorage powerConsumption:vector ETV
attr interpolationmode sample-hold
attr source powerConsumptionChanged
attr title "Power consumption, vector"
vector 25 FanetSybilNormale.host[25].energyStorage powerConsumption:vector ETV
attr interpolationmode sample-hold
attr source powerConsumptionChanged
attr title "Power consumption, vector"
vector 26 FanetSybilNormale.host[26].energyStorage powerConsumption:vector ETV
attr interpolationmode sample-hold
attr source powerConsumptionChanged
attr title "Power consumption, vector"
vector 27 FanetSybilNormale.host[27].energyStorage powerConsumption:vector ETV
attr interpolationmode sample-hold
attr source powerConsumptionChanged
attr title "Power consumption, vector"
vector 28 FanetSybilNormale.host[28].energyStorage powerConsumption:vector ETV
attr interpolationmode sample-hold
attr source powerConsumptionChanged
attr title "Power consumption, vector"
vector 29 FanetSybilNormale.host[29].energyStorage powerConsumption:vector ETV
attr interpolationmode sample-hold
attr source powerConsumptionChanged
attr title "Power consumption, vector"
vector 30 FanetSybilNormale.host[30].energyStorage powerConsumption:vector ETV
attr interpolationmode sample-hold
attr source powerConsumptionChanged
attr title "Power consumption, vector"
vector 31 FanetSybilNormale.host[31].energyStorage powerConsumption:vector ETV
attr interpolationmode sample-hold
attr source powerConsumptionChanged
attr title "Power consumption, vector"
vector 32 FanetSybilNormale.host[32].energyStorage powerConsumption:vector ETV
attr interpolationmode sample-hold
attr source powerConsumptionChanged
attr title "Power consumption, vector"
vector 33 FanetSybilNormale.host[33].energyStorage powerConsumption:vector ETV
attr interpolationmode sample-hold
attr source powerConsumptionChanged
attr title "Power consumption, vector"
vector 34 FanetSybilNormale.host[34].energyStorage powerConsumption:vector ETV
attr interpolationmode sample-hold
attr source powerConsumptionChanged
attr title "Power consumption, vector"
vector 35 FanetSybilNormale.host[35].energyStorage powerConsumption:vector ETV
attr interpolationmode sample-hold
attr source powerConsumptionChanged
attr title "Power consumption, vector"
vector 36 FanetSybilNormale.host[36].energyStorage powerConsumption:vector ETV
attr interpolationmode sample-hold
attr source powerConsumptionChanged
attr title "Power consumption, vector"
vector 37 FanetSybilNormale.host[37].energyStorage powerConsumption:vector ETV
attr interpolationmode sample-hold
attr source powerConsumptionChanged
attr title "Power consumption, vector"
vector 38 FanetSybilNormale.host[38].energyStorage powerConsumption:vector ETV
attr interpolationmode sample-hold
attr source powerConsumptionChanged
attr title "Power consumption, vector"
vector 39 FanetSybilNormale.host[39].energyStorage powerConsumption:vector ETV
attr interpolationmode sample-hold
attr source powerConsumptionChanged
attr title "Power consumption, vector"
vector 40 FanetSybilNormale.host[40].energyStorage powerConsumption:vector ETV
attr interpolationmode sample-hold
attr source powerConsumptionChanged
attr title "Power consumption, vector"
vector 41 FanetSybilNormale.host[41].energyStorage powerConsumption:vector ETV
attr interpolationmode sample-hold
attr source powerConsumptionChanged
attr title "Power consumption, vector"
vector 42 FanetSybilNormale.host[42].energyStorage powerConsumption:vector ETV
attr interpolationmode sample-hold
attr source powerConsumptionChanged
attr title "Power consumption, vector"
vector 43 FanetSybilNormale.host[43].energyStorage powerConsumption:vector ETV
attr interpolationmode sample-hold
attr source powerConsumptionChanged
attr title "Power consumption, vector"
vector 44 FanetSybilNormale.host[44].energyStorage powerConsumption:vector ETV
attr interpolationmode sample-hold
attr source powerConsumptionChanged
attr title "Power consumption, vector"
vector 45 FanetSybilNormale.host[45].energyStorage powerConsumption:vector ETV
attr interpolationmode sample-hold
attr source powerConsumptionChanged
attr title "Power consumption, vector"
vector 46 FanetSybilNormale.host[46].energyStorage powerConsumption:vector ETV
attr interpolationmode sample-hold
attr source powerConsumptionChanged
attr title "Power consumption, vector"
vector 47 FanetSybilNormale.host[47].energyStorage powerConsumption:vector ETV
attr interpolationmode sample-hold
attr source powerConsumptionChanged
attr title "Power consumption, vector"
vector 48 FanetSybilNormale.host[48].energyStorage powerConsumption:vector ETV
attr interpolationmode sample-hold
attr source powerConsumptionChanged
attr title "Power consumption, vector"
vector 49 FanetSybilNormale.host[49].energyStorage powerConsumption:vector ETV
attr interpolationmode sample-hold
attr source powerConsumptionChanged
attr title "Power consumption, vector"
vector 50 FanetSybilNormale.host[0].wlan[0].radio radioMode:vector ETV
attr interpolationmode sample-hold
attr source radioModeChanged
attr title "Radio mode, vector"
vector 51 FanetSybilNormale.host[0].wlan[0].radio.energyConsumer powerConsumption:vector ETV
attr interpolationmode sample-hold
attr source powerConsumptionChanged
attr title "Power consumption, vector"
vector 52 FanetSybilNormale.host[1].wlan[0].radio radioMode:vector ETV
attr interpolationmode sample-hold
attr source radioModeChanged
attr title "Radio mode, vector"
vector 53 FanetSybilNormale.host[1].wlan[0].radio.energyConsumer powerConsumption:vector ETV
attr interpolationmode sample-hold
attr source powerConsumptionChanged
attr title "Power consumption, vector"
vector 54 FanetSybilNormale.host[2].wlan[0].radio radioMode:vector ETV
attr interpolationmode sample-hold
attr source radioModeChanged
attr title "Radio mode, vector"
vector 55 FanetSybilNormale.host[2].wlan[0].radio.energyConsumer powerConsumption:vector ETV
attr interpolationmode sample-hold
attr source powerConsumptionChanged
attr title "Power consumption, vector"
vector 56 FanetSybilNormale.host[3].wlan[0].radio radioMode:vector ETV
attr interpolationmode sample-hold
attr source radioModeChanged
attr title "Radio mode, vector"
vector 57 FanetSybilNormale.host[3].wlan[0].radio.energyConsumer powerConsumption:vector ETV
attr interpolationmode sample-hold
attr source powerConsumptionChanged
attr title "Power consumption, vector"
vector 58 FanetSybilNormale.host[4].wlan[0].radio radioMode:vector ETV
attr interpolationmode sample-hold
attr source radioModeChanged
attr title "Radio mode, vector"
vector 59 FanetSybilNormale.host[4].wlan[0].radio.energyConsumer powerConsumption:vector ETV
attr interpolationmode sample-hold
attr source powerConsumptionChanged
attr title "Power consumption, vector"
vector 60 FanetSybilNormale.host[5].wlan[0].radio radioMode:vector ETV
attr interpolationmode sample-hold
attr source radioModeChanged
attr title "Radio mode, vector"
vector 61 FanetSybilNormale.host[5].wlan[0].radio.energyConsumer powerConsumption:vector ETV
attr interpolationmode sample-hold
attr source powerConsumptionChanged
attr title "Power consumption, vector"
vector 62 FanetSybilNormale.host[6].wlan[0].radio radioMode:vector ETV
attr interpolationmode sample-hold
attr source radioModeChanged
attr title "Radio mode, vector"
vector 63 FanetSybilNormale.host[6].wlan[0].radio.energyConsumer powerConsumption:vector ETV
attr interpolationmode sample-hold
attr source powerConsumptionChanged
attr title "Power consumption, vector"
vector 64 FanetSybilNormale.host[7].wlan[0].radio radioMode:vector ETV
attr interpolationmode sample-hold
attr source radioModeChanged
attr title "Radio mode, vector"
vector 65 FanetSybilNormale.host[7].wlan[0].radio.energyConsumer powerConsumption:vector ETV
attr interpolationmode sample-hold
attr source powerConsumptionChanged
attr title "Power consumption, vector"
vector 66 FanetSybilNormale.host[8].wlan[0].radio radioMode:vector ETV
attr interpolationmode sample-hold
attr source radioModeChanged
attr title "Radio mode, vector"
vector 67 FanetSybilNormale.host[8].wlan[0].radio.energyConsumer powerConsumption:vector ETV
attr interpolationmode sample-hold
attr source powerConsumptionChanged
attr title "Power consumption, vector"
vector 68 FanetSybilNormale.host[9].wlan[0].radio radioMode:vector ETV
attr interpolationmode sample-hold
attr source radioModeChanged
attr title "Radio mode, vector"
vector 69 FanetSybilNormale.host[9].wlan[0].radio.energyConsumer powerConsumption:vector ETV
attr interpolationmode sample-hold
attr source powerConsumptionChanged
attr title "Power consumption, vector"
vector 70 FanetSybilNormale.host[10].wlan[0].radio radioMode:vector ETV
attr interpolationmode sample-hold
attr source radioModeChanged
attr title "Radio mode, vector"
vector 71 FanetSybilNormale.host[10].wlan[0].radio.energyConsumer powerConsumption:vector ETV
attr interpolationmode sample-hold
attr source powerConsumptionChanged
attr title "Power consumption, vector"
vector 72 FanetSybilNormale.host[11].wlan[0].radio radioMode:vector ETV
attr interpolationmode sample-hold
attr source radioModeChanged
attr title "Radio mode, vector"
vector 73 FanetSybilNormale.host[11].wlan[0].radio.energyConsumer powerConsumption:vector ETV
attr interpolationmode sample-hold
attr source powerConsumptionChanged
attr title "Power consumption, vector"
vector 74 FanetSybilNormale.host[12].wlan[0].radio radioMode:vector ETV
attr interpolationmode sample-hold
attr source radioModeChanged
attr title "Radio mode, vector"
vector 75 FanetSybilNormale.host[12].wlan[0].radio.energyConsumer powerConsumption:vector ETV
attr interpolationmode sample-hold
attr source powerConsumptionChanged
attr title "Power consumption, vector"
vector 76 FanetSybilNormale.host[13].wlan[0].radio radioMode:vector ETV
attr interpolationmode sample-hold
attr source radioModeChanged
attr title "Radio mode, vector"
vector 77 FanetSybilNormale.host[13].wlan[0].radio.energyConsumer powerConsumption:vector ETV
attr interpolationmode sample-hold
attr source powerConsumptionChanged
attr title "Power consumption, vector"
vector 78 FanetSybilNormale.host[14].wlan[0].radio radioMode:vector ETV
attr interpolationmode sample-hold
attr source radioModeChanged
attr title "Radio mode, vector"
vector 79 FanetSybilNormale.host[14].wlan[0].radio.energyConsumer powerConsumption:vector ETV
attr interpolationmode sample-hold
attr source powerConsumptionChanged
attr title "Power consumption, vector"
vector 80 FanetSybilNormale.host[15].wlan[0].radio radioMode:vector ETV
attr interpolationmode sample-hold
attr source radioModeChanged
attr title "Radio mode, vector"
vector 81 FanetSybilNormale.host[15].wlan[0].radio.energyConsumer powerConsumption:vector ETV
attr interpolationmode sample-hold
attr source powerConsumptionChanged
attr title "Power consumption, vector"
vector 82 FanetSybilNormale.host[16].wlan[0].radio radioMode:vector ETV
attr interpolationmode sample-hold
attr source radioModeChanged
attr title "Radio mode, vector"
vector 83 FanetSybilNormale.host[16].wlan[0].radio.energyConsumer powerConsumption:vector ETV
attr interpolationmode sample-hold
attr source powerConsumptionChanged
attr title "Power consumption, vector"
vector 84 FanetSybilNormale.host[17].wlan[0].radio radioMode:vector ETV
attr interpolationmode sample-hold
attr source radioModeChanged
attr title "Radio mode, vector"
vector 85 FanetSybilNormale.host[17].wlan[0].radio.energyConsumer powerConsumption:vector ETV
attr interpolationmode sample-hold
attr source powerConsumptionChanged
attr title "Power consumption, vector"
vector 86 FanetSybilNormale.host[18].wlan[0].radio radioMode:vector ETV
attr interpolationmode sample-hold
attr source radioModeChanged
attr title "Radio mode, vector"
vector 87 FanetSybilNormale.host[18].wlan[0].radio.energyConsumer powerConsumption:vector ETV
attr interpolationmode sample-hold
attr source powerConsumptionChanged
attr title "Power consumption, vector"
vector 88 FanetSybilNormale.host[19].wlan[0].radio radioMode:vector ETV
attr interpolationmode sample-hold
attr source radioModeChanged
attr title "Radio mode, vector"
vector 89 FanetSybilNormale.host[19].wlan[0].radio.energyConsumer powerConsumption:vector ETV
attr interpolationmode sample-hold
attr source powerConsumptionChanged
attr title "Power consumption, vector"
vector 90 FanetSybilNormale.host[20].wlan[0].radio radioMode:vector ETV
attr interpolationmode sample-hold
attr source radioModeChanged
attr title "Radio mode, vector"
vector 91 FanetSybilNormale.host[20].wlan[0].radio.energyConsumer powerConsumption:vector ETV
attr interpolationmode sample-hold
attr source powerConsumptionChanged
attr title "Power consumption, vector"
vector 92 FanetSybilNormale.host[21].wlan[0].radio radioMode:vector ETV
attr interpolationmode sample-hold
attr source radioModeChanged
attr title "Radio mode, vector"
vector 93 FanetSybilNormale.host[21].wlan[0].radio.energyConsumer powerConsumption:vector ETV
attr interpolationmode sample-hold
attr source powerConsumptionChanged
attr title "Power consumption, vector"
vector 94 FanetSybilNormale.host[22].wlan[0].radio radioMode:vector ETV
attr interpolationmode sample-hold
attr source radioModeChanged
attr title "Radio mode, vector"
vector 95 FanetSybilNormale.host[22].wlan[0].radio.energyConsumer powerConsumption:vector ETV
attr interpolationmode sample-hold
attr source powerConsumptionChanged
attr title "Power consumption, vector"
vector 96 FanetSybilNormale.host[23].wlan[0].radio radioMode:vector ETV
attr interpolationmode sample-hold
attr source radioModeChanged
attr title "Radio mode, vector"
vector 97 FanetSybilNormale.host[23].wlan[0].radio.energyConsumer powerConsumption:vector ETV
attr interpolationmode sample-hold
attr source powerConsumptionChanged
attr title "Power consumption, vector"
vector 98 FanetSybilNormale.host[24].wlan[0].radio radioMode:vector ETV
attr interpolationmode sample-hold
attr source radioModeChanged
attr title "Radio mode, vector"
vector 99 FanetSybilNormale.host[24].wlan[0].radio.energyConsumer powerConsumption:vector ETV
attr interpolationmode sample-hold
attr source powerConsumptionChanged
attr title "Power consumption, vector"
vector 100 FanetSybilNormale.host[25].wlan[0].radio radioMode:vector ETV
attr interpolationmode sample-hold
attr source radioModeChanged
attr title "Radio mode, vector"
vector 101 FanetSybilNormale.host[25].wlan[0].radio.energyConsumer powerConsumption:vector ETV
attr interpolationmode sample-hold
attr source powerConsumptionChanged
attr title "Power consumption, vector"
vector 102 FanetSybilNormale.host[26].wlan[0].radio radioMode:vector ETV
attr interpolationmode sample-hold
attr source radioModeChanged
attr title "Radio mode, vector"
vector 103 FanetSybilNormale.host[26].wlan[0].radio.energyConsumer powerConsumption:vector ETV
attr interpolationmode sample-hold
attr source powerConsumptionChanged
attr title "Power consumption, vector"
vector 104 FanetSybilNormale.host[27].wlan[0].radio radioMode:vector ETV
attr interpolationmode sample-hold
attr source radioModeChanged
attr title "Radio mode, vector"
vector 105 FanetSybilNormale.host[27].wlan[0].radio.energyConsumer powerConsumption:vector ETV
attr interpolationmode sample-hold
attr source powerConsumptionChanged
attr title "Power consumption, vector"
vector 106 FanetSybilNormale.host[28].wlan[0].radio radioMode:vector ETV
attr interpolationmode sample-hold
attr source radioModeChanged
attr title "Radio mode, vector"
vector 107 FanetSybilNormale.host[28].wlan[0].radio.energyConsumer powerConsumption:vector ETV
attr interpolationmode sample-hold
attr source powerConsumptionChanged
attr title "Power consumption, vector"
vector 108 FanetSybilNormale.host[29].wlan[0].radio radioMode:vector ETV
attr interpolationmode sample-hold
attr source radioModeChanged
attr title "Radio mode, vector"
vector 109 FanetSybilNormale.host[29].wlan[0].radio.energyConsumer powerConsumption:vector ETV
attr interpolationmode sample-hold
attr source powerConsumptionChanged
attr title "Power consumption, vector"
vector 110 FanetSybilNormale.host[30].wlan[0].radio radioMode:vector ETV
attr interpolationmode sample-hold
attr source radioModeChanged
attr title "Radio mode, vector"
vector 111 FanetSybilNormale.host[30].wlan[0].radio.energyConsumer powerConsumption:vector ETV
attr interpolationmode sample-hold
attr source powerConsumptionChanged
attr title "Power consumption, vector"
vector 112 FanetSybilNormale.host[31].wlan[0].radio radioMode:vector ETV
attr interpolationmode sample-hold
attr source radioModeChanged
attr title "Radio mode, vector"
vector 113 FanetSybilNormale.host[31].wlan[0].radio.energyConsumer powerConsumption:vector ETV
attr interpolationmode sample-hold
attr source powerConsumptionChanged
attr title "Power consumption, vector"
vector 114 FanetSybilNormale.host[32].wlan[0].radio radioMode:vector ETV
attr interpolationmode sample-hold
attr source radioModeChanged
attr title "Radio mode, vector"
vector 115 FanetSybilNormale.host[32].wlan[0].radio.energyConsumer powerConsumption:vector ETV
attr interpolationmode sample-hold
attr source powerConsumptionChanged
attr title "Power consumption, vector"
vector 116 FanetSybilNormale.host[33].wlan[0].radio radioMode:vector ETV
attr interpolationmode sample-hold
attr source radioModeChanged
attr title "Radio mode, vector"
vector 117 FanetSybilNormale.host[33].wlan[0].radio.energyConsumer powerConsumption:vector ETV
attr interpolationmode sample-hold
attr source powerConsumptionChanged
attr title "Power consumption, vector"
vector 118 FanetSybilNormale.host[34].wlan[0].radio radioMode:vector ETV
attr interpolationmode sample-hold
attr source radioModeChanged
attr title "Radio mode, vector"
vector 119 FanetSybilNormale.host[34].wlan[0].radio.energyConsumer powerConsumption:vector ETV
attr interpolationmode sample-hold
attr source powerConsumptionChanged
attr title "Power consumption, vector"
vector 120 FanetSybilNormale.host[35].wlan[0].radio radioMode:vector ETV
attr interpolationmode sample-hold
attr source radioModeChanged
attr title "Radio mode, vector"
vector 121 FanetSybilNormale.host[35].wlan[0].radio.energyConsumer powerConsumption:vector ETV
attr interpolationmode sample-hold
attr source powerConsumptionChanged
attr title "Power consumption, vector"
vector 122 FanetSybilNormale.host[36].wlan[0].radio radioMode:vector ETV
attr interpolationmode sample-hold
attr source radioModeChanged
attr title "Radio mode, vector"
vector 123 FanetSybilNormale.host[36].wlan[0].radio.energyConsumer powerConsumption:vector ETV
attr interpolationmode sample-hold
attr source powerConsumptionChanged
attr title "Power consumption, vector"
vector 124 FanetSybilNormale.host[37].wlan[0].radio radioMode:vector ETV
attr interpolationmode sample-hold
attr source radioModeChanged
attr title "Radio mode, vector"
vector 125 FanetSybilNormale.host[37].wlan[0].radio.energyConsumer powerConsumption:vector ETV
attr interpolationmode sample-hold
attr source powerConsumptionChanged
attr title "Power consumption, vector"
vector 126 FanetSybilNormale.host[38].wlan[0].radio radioMode:vector ETV
attr interpolationmode sample-hold
attr source radioModeChanged
attr title "Radio mode, vector"
vector 127 FanetSybilNormale.host[38].wlan[0].radio.energyConsumer powerConsumption:vector ETV
attr interpolationmode sample-hold
attr source powerConsumptionChanged
attr title "Power consumption, vector"
vector 128 FanetSybilNormale.host[39].wlan[0].radio radioMode:vector ETV
attr interpolationmode sample-hold
attr source radioModeChanged
attr title "Radio mode, vector"
vector 129 FanetSybilNormale.host[39].wlan[0].radio.energyConsumer powerConsumption:vector ETV
attr interpolationmode sample-hold
attr source powerConsumptionChanged
attr title "Power consumption, vector"
vector 130 FanetSybilNormale.host[40].wlan[0].radio radioMode:vector ETV
attr interpolationmode sample-hold
attr source radioModeChanged
attr title "Radio mode, vector"
vector 131 FanetSybilNormale.host[40].wlan[0].radio.energyConsumer powerConsumption:vector ETV
attr interpolationmode sample-hold
attr source powerConsumptionChanged
attr title "Power consumption, vector"
vector 132 FanetSybilNormale.host[41].wlan[0].radio radioMode:vector ETV
attr interpolationmode sample-hold
attr source radioModeChanged
attr title "Radio mode, vector"
vector 133 FanetSybilNormale.host[41].wlan[0].radio.energyConsumer powerConsumption:vector ETV
attr interpolationmode sample-hold
attr source powerConsumptionChanged
attr title "Power consumption, vector"
vector 134 FanetSybilNormale.host[42].wlan[0].radio radioMode:vector ETV
attr interpolationmode sample-hold
attr source radioModeChanged
attr title "Radio mode, vector"
vector 135 FanetSybilNormale.host[42].wlan[0].radio.energyConsumer powerConsumption:vector ETV
attr interpolationmode sample-hold
attr source powerConsumptionChanged
attr title "Power consumption, vector"
vector 136 FanetSybilNormale.host[43].wlan[0].radio radioMode:vector ETV
attr interpolationmode sample-hold
attr source radioModeChanged
attr title "Radio mode, vector"
vector 137 FanetSybilNormale.host[43].wlan[0].radio.energyConsumer powerConsumption:vector ETV
attr interpolationmode sample-hold
attr source powerConsumptionChanged
attr title "Power consumption, vector"
vector 138 FanetSybilNormale.host[44].wlan[0].radio radioMode:vector ETV
attr interpolationmode sample-hold
attr source radioModeChanged
attr title "Radio mode, vector"
vector 139 FanetSybilNormale.host[44].wlan[0].radio.energyConsumer powerConsumption:vector ETV
attr interpolationmode sample-hold
attr source powerConsumptionChanged
attr title "Power consumption, vector"
vector 140 FanetSybilNormale.host[45].wlan[0].radio radioMode:vector ETV
attr interpolationmode sample-hold
attr source radioModeChanged
attr title "Radio mode, vector"
vector 141 FanetSybilNormale.host[45].wlan[0].radio.energyConsumer powerConsumption:vector ETV
attr interpolationmode sample-hold
attr source powerConsumptionChanged
attr title "Power consumption, vector"
vector 142 FanetSybilNormale.host[46].wlan[0].radio radioMode:vector ETV
attr interpolationmode sample-hold
attr source radioModeChanged
attr title "Radio mode, vector"
vector 143 FanetSybilNormale.host[46].wlan[0].radio.energyConsumer powerConsumption:vector ETV
attr interpolationmode sample-hold
attr source powerConsumptionChanged
attr title "Power consumption, vector"
vector 144 FanetSybilNormale.host[47].wlan[0].radio radioMode:vector ETV
attr interpolationmode sample-hold
attr source radioModeChanged
attr title "Radio mode, vector"
vector 145 FanetSybilNormale.host[47].wlan[0].radio.energyConsumer powerConsumption:vector ETV
attr interpolationmode sample-hold
attr source powerConsumptionChanged
attr title "Power consumption, vector"
vector 146 FanetSybilNormale.host[48].wlan[0].radio radioMode:vector ETV
attr interpolationmode sample-hold
attr source radioModeChanged
attr title "Radio mode, vector"
vector 147 FanetSybilNormale.host[48].wlan[0].radio.energyConsumer powerConsumption:vector ETV
attr interpolationmode sample-hold
attr source powerConsumptionChanged
attr title "Power consumption, vector"
vector 148 FanetSybilNormale.host[49].wlan[0].radio radioMode:vector ETV
attr interpolationmode sample-hold
attr source radioModeChanged
attr title "Radio mode, vector"
vector 149 FanetSybilNormale.host[49].wlan[0].radio.energyConsumer powerConsumption:vector ETV
attr interpolationmode sample-hold
attr source powerConsumptionChanged
attr title "Power consumption, vector"
vector 150 FanetSybilNormale.host[0].wlan[0].radio receptionState:vector ETV
attr interpolationmode sample-hold
attr source receptionStateChanged
attr title "Radio reception state, vector"
vector 151 FanetSybilNormale.host[0].wlan[0].radio transmissionState:vector ETV
attr interpolationmode sample-hold
attr source transmissionStateChanged
attr title "Radio transmission state, vector"
vector 152 FanetSybilNormale.host[1].wlan[0].radio receptionState:vector ETV
attr interpolationmode sample-hold
attr source receptionStateChanged
attr title "Radio reception state, vector"
vector 153 FanetSybilNormale.host[1].wlan[0].radio transmissionState:vector ETV
attr interpolationmode sample-hold
attr source transmissionStateChanged
attr title "Radio transmission state, vector"
vector 154 FanetSybilNormale.host[2].wlan[0].radio receptionState:vector ETV
attr interpolationmode sample-hold
attr source receptionStateChanged
attr title "Radio reception state, vector"
vector 155 FanetSybilNormale.host[2].wlan[0].radio transmissionState:vector ETV
attr interpolationmode sample-hold
attr source transmissionStateChanged
attr title "Radio transmission state, vector"
vector 156 FanetSybilNormale.host[3].wlan[0].radio receptionState:vector ETV
attr interpolationmode sample-hold
attr source receptionStateChanged
attr title "Radio reception state, vector"
vector 157 FanetSybilNormale.host[3].wlan[0].radio transmissionState:vector ETV
attr interpolationmode sample-hold
attr source transmissionStateChanged
attr title "Radio transmission state, vector"
vector 158 FanetSybilNormale.host[4].wlan[0].radio receptionState:vector ETV
attr interpolationmode sample-hold
attr source receptionStateChanged
attr title "Radio reception state, vector"
vector 159 FanetSybilNormale.host[4].wlan[0].radio transmissionState:vector ETV
attr interpolationmode sample-hold
attr source transmissionStateChanged
attr title "Radio transmission state, vector"
vector 160 FanetSybilNormale.host[5].wlan[0].radio receptionState:vector ETV
attr interpolationmode sample-hold
attr source receptionStateChanged
attr title "Radio reception state, vector"
vector 161 FanetSybilNormale.host[5].wlan[0].radio transmissionState:vector ETV
attr interpolationmode sample-hold
attr source transmissionStateChanged
attr title "Radio transmission state, vector"
vector 162 FanetSybilNormale.host[6].wlan[0].radio receptionState:vector ETV
attr interpolationmode sample-hold
attr source receptionStateChanged
attr title "Radio reception state, vector"
vector 163 FanetSybilNormale.host[6].wlan[0].radio transmissionState:vector ETV
attr interpolationmode sample-hold
attr source transmissionStateChanged
attr title "Radio transmission state, vector"
vector 164 FanetSybilNormale.host[7].wlan[0].radio receptionState:vector ETV
attr interpolationmode sample-hold
attr source receptionStateChanged
attr title "Radio reception state, vector"
vector 165 FanetSybilNormale.host[7].wlan[0].radio transmissionState:vector ETV
attr interpolationmode sample-hold
attr source transmissionStateChanged
attr title "Radio transmission state, vector"
vector 166 FanetSybilNormale.host[8].wlan[0].radio receptionState:vector ETV
attr interpolationmode sample-hold
attr source receptionStateChanged
attr title "Radio reception state, vector"
vector 167 FanetSybilNormale.host[8].wlan[0].radio transmissionState:vector ETV
attr interpolationmode sample-hold
attr source transmissionStateChanged
attr title "Radio transmission state, vector"
vector 168 FanetSybilNormale.host[9].wlan[0].radio receptionState:vector ETV
attr interpolationmode sample-hold
attr source receptionStateChanged
attr title "Radio reception state, vector"
vector 169 FanetSybilNormale.host[9].wlan[0].radio transmissionState:vector ETV
attr interpolationmode sample-hold
attr source transmissionStateChanged
attr title "Radio transmission state, vector"
vector 170 FanetSybilNormale.host[10].wlan[0].radio receptionState:vector ETV
attr interpolationmode sample-hold
attr source receptionStateChanged
attr title "Radio reception state, vector"
vector 171 FanetSybilNormale.host[10].wlan[0].radio transmissionState:vector ETV
attr interpolationmode sample-hold
attr source transmissionStateChanged
attr title "Radio transmission state, vector"
vector 172 FanetSybilNormale.host[11].wlan[0].radio receptionState:vector ETV
attr interpolationmode sample-hold
attr source receptionStateChanged
attr title "Radio reception state, vector"
vector 173 FanetSybilNormale.host[11].wlan[0].radio transmissionState:vector ETV
attr interpolationmode sample-hold
attr source transmissionStateChanged
attr title "Radio transmission state, vector"
vector 174 FanetSybilNormale.host[12].wlan[0].radio receptionState:vector ETV
attr interpolationmode sample-hold
attr source receptionStateChanged
attr title "Radio reception state, vector"
vector 175 FanetSybilNormale.host[12].wlan[0].radio transmissionState:vector ETV
attr interpolationmode sample-hold
attr source transmissionStateChanged
attr title "Radio transmission state, vector"
vector 176 FanetSybilNormale.host[13].wlan[0].radio receptionState:vector ETV
attr interpolationmode sample-hold
attr source receptionStateChanged
attr title "Radio reception state, vector"
vector 177 FanetSybilNormale.host[13].wlan[0].radio transmissionState:vector ETV
attr interpolationmode sample-hold
attr source transmissionStateChanged
attr title "Radio transmission state, vector"
vector 178 FanetSybilNormale.host[14].wlan[0].radio receptionState:vector ETV
attr interpolationmode sample-hold
attr source receptionStateChanged
attr title "Radio reception state, vector"
vector 179 FanetSybilNormale.host[14].wlan[0].radio transmissionState:vector ETV
attr interpolationmode sample-hold
attr source transmissionStateChanged
attr title "Radio transmission state, vector"
vector 180 FanetSybilNormale.host[15].wlan[0].radio receptionState:vector ETV
attr interpolationmode sample-hold
attr source receptionStateChanged
attr title "Radio reception state, vector"
vector 181 FanetSybilNormale.host[15].wlan[0].radio transmissionState:vector ETV
attr interpolationmode sample-hold
attr source transmissionStateChanged
attr title "Radio transmission state, vector"
vector 182 FanetSybilNormale.host[16].wlan[0].radio receptionState:vector ETV
attr interpolationmode sample-hold
attr source receptionStateChanged
attr title "Radio reception state, vector"
vector 183 FanetSybilNormale.host[16].wlan[0].radio transmissionState:vector ETV
attr interpolationmode sample-hold
attr source transmissionStateChanged
attr title "Radio transmission state, vector"
vector 184 FanetSybilNormale.host[17].wlan[0].radio receptionState:vector ETV
attr interpolationmode sample-hold
attr source receptionStateChanged
attr title "Radio reception state, vector"
vector 185 FanetSybilNormale.host[17].wlan[0].radio transmissionState:vector ETV
attr interpolationmode sample-hold
attr source transmissionStateChanged
attr title "Radio transmission state, vector"
vector 186 FanetSybilNormale.host[18].wlan[0].radio receptionState:vector ETV
attr interpolationmode sample-hold
attr source receptionStateChanged
attr title "Radio reception state, vector"
vector 187 FanetSybilNormale.host[18].wlan[0].radio transmissionState:vector ETV
attr interpolationmode sample-hold
attr source transmissionStateChanged
attr title "Radio transmission state, vector"
vector 188 FanetSybilNormale.host[19].wlan[0].radio receptionState:vector ETV
attr interpolationmode sample-hold
attr source receptionStateChanged
attr title "Radio reception state, vector"
vector 189 FanetSybilNormale.host[19].wlan[0].radio transmissionState:vector ETV
attr interpolationmode sample-hold
attr source transmissionStateChanged
attr title "Radio transmission state, vector"
vector 190 FanetSybilNormale.host[20].wlan[0].radio receptionState:vector ETV
attr interpolationmode sample-hold
attr source receptionStateChanged
attr title "Radio reception state, vector"
vector 191 FanetSybilNormale.host[20].wlan[0].radio transmissionState:vector ETV
attr interpolationmode sample-hold
attr source transmissionStateChanged
attr title "Radio transmission state, vector"
vector 192 FanetSybilNormale.host[21].wlan[0].radio receptionState:vector ETV
attr interpolationmode sample-hold
attr source receptionStateChanged
attr title "Radio reception state, vector"
vector 193 FanetSybilNormale.host[21].wlan[0].radio transmissionState:vector ETV
attr interpolationmode sample-hold
attr source transmissionStateChanged
attr title "Radio transmission state, vector"
vector 194 FanetSybilNormale.host[22].wlan[0].radio receptionState:vector ETV
attr interpolationmode sample-hold
attr source receptionStateChanged
attr title "Radio reception state, vector"
vector 195 FanetSybilNormale.host[22].wlan[0].radio transmissionState:vector ETV
attr interpolationmode sample-hold
attr source transmissionStateChanged
attr title "Radio transmission state, vector"
vector 196 FanetSybilNormale.host[23].wlan[0].radio receptionState:vector ETV
attr interpolationmode sample-hold
attr source receptionStateChanged
attr title "Radio reception state, vector"
vector 197 FanetSybilNormale.host[23].wlan[0].radio transmissionState:vector ETV
attr interpolationmode sample-hold
attr source transmissionStateChanged
attr title "Radio transmission state, vector"
vector 198 FanetSybilNormale.host[24].wlan[0].radio receptionState:vector ETV
attr interpolationmode sample-hold
attr source receptionStateChanged
attr title "Radio reception state, vector"
vector 199 FanetSybilNormale.host[24].wlan[0].radio transmissionState:vector ETV
attr interpolationmode sample-hold
attr source transmissionStateChanged
attr title "Radio transmission state, vector"
vector 200 FanetSybilNormale.host[25].wlan[0].radio receptionState:vector ETV
attr interpolationmode sample-hold
attr source receptionStateChanged
attr title "Radio reception state, vector"
vector 201 FanetSybilNormale.host[25].wlan[0].radio transmissionState:vector ETV
attr interpolationmode sample-hold
attr source transmissionStateChanged
attr title "Radio transmission state, vector"
vector 202 FanetSybilNormale.host[26].wlan[0].radio receptionState:vector ETV
attr interpolationmode sample-hold
attr source receptionStateChanged
attr title "Radio reception state, vector"
vector 203 FanetSybilNormale.host[26].wlan[0].radio transmissionState:vector ETV
attr interpolationmode sample-hold
attr source transmissionStateChanged
attr title "Radio transmission state, vector"
vector 204 FanetSybilNormale.host[27].wlan[0].radio receptionState:vector ETV
attr interpolationmode sample-hold
attr source receptionStateChanged
attr title "Radio reception state, vector"
vector 205 FanetSybilNormale.host[27].wlan[0].radio transmissionState:vector ETV
attr interpolationmode sample-hold
attr source transmissionStateChanged
attr title "Radio transmission state, vector"
vector 206 FanetSybilNormale.host[28].wlan[0].radio receptionState:vector ETV
attr interpolationmode sample-hold
attr source receptionStateChanged
attr title "Radio reception state, vector"
vector 207 FanetSybilNormale.host[28].wlan[0].radio transmissionState:vector ETV
attr interpolationmode sample-hold
attr source transmissionStateChanged
attr title "Radio transmission state, vector"
vector 208 FanetSybilNormale.host[29].wlan[0].radio receptionState:vector ETV
attr interpolationmode sample-hold
attr source receptionStateChanged
attr title "Radio reception state, vector"
vector 209 FanetSybilNormale.host[29].wlan[0].radio transmissionState:vector ETV
attr interpolationmode sample-hold
attr source transmissionStateChanged
attr title "Radio transmission state, vector"
vector 210 FanetSybilNormale.host[30].wlan[0].radio receptionState:vector ETV
attr interpolationmode sample-hold
attr source receptionStateChanged
attr title "Radio reception state, vector"
vector 211 FanetSybilNormale.host[30].wlan[0].radio transmissionState:vector ETV
attr interpolationmode sample-hold
attr source transmissionStateChanged
attr title "Radio transmission state, vector"
vector 212 FanetSybilNormale.host[31].wlan[0].radio receptionState:vector ETV
attr interpolationmode sample-hold
attr source receptionStateChanged
attr title "Radio reception state, vector"
vector 213 FanetSybilNormale.host[31].wlan[0].radio transmissionState:vector ETV
attr interpolationmode sample-hold
attr source transmissionStateChanged
attr title "Radio transmission state, vector"
vector 214 FanetSybilNormale.host[32].wlan[0].radio receptionState:vector ETV
attr interpolationmode sample-hold
attr source receptionStateChanged
attr title "Radio reception state, vector"
vector 215 FanetSybilNormale.host[32].wlan[0].radio transmissionState:vector ETV
attr interpolationmode sample-hold
attr source transmissionStateChanged
attr title "Radio transmission state, vector"
vector 216 FanetSybilNormale.host[33].wlan[0].radio receptionState:vector ETV
attr interpolationmode sample-hold
attr source receptionStateChanged
attr title "Radio reception state, vector"
vector 217 FanetSybilNormale.host[33].wlan[0].radio transmissionState:vector ETV
attr interpolationmode sample-hold
attr source transmissionStateChanged
attr title "Radio transmission state, vector"
vector 218 FanetSybilNormale.host[34].wlan[0].radio receptionState:vector ETV
attr interpolationmode sample-hold
attr source receptionStateChanged
attr title "Radio reception state, vector"
vector 219 FanetSybilNormale.host[34].wlan[0].radio transmissionState:vector ETV
attr interpolationmode sample-hold
attr source transmissionStateChanged
attr title "Radio transmission state, vector"
vector 220 FanetSybilNormale.host[35].wlan[0].radio receptionState:vector ETV
attr interpolationmode sample-hold
attr source receptionStateChanged
attr title "Radio reception state, vector"
vector 221 FanetSybilNormale.host[35].wlan[0].radio transmissionState:vector ETV
attr interpolationmode sample-hold
attr source transmissionStateChanged
attr title "Radio transmission state, vector"
vector 222 FanetSybilNormale.host[36].wlan[0].radio receptionState:vector ETV
attr interpolationmode sample-hold
attr source receptionStateChanged
attr title "Radio reception state, vector"
vector 223 FanetSybilNormale.host[36].wlan[0].radio transmissionState:vector ETV
attr interpolationmode sample-hold
attr source transmissionStateChanged
attr title "Radio transmission state, vector"
vector 224 FanetSybilNormale.host[37].wlan[0].radio receptionState:vector ETV
attr interpolationmode sample-hold
attr source receptionStateChanged
attr title "Radio reception state, vector"
vector 225 FanetSybilNormale.host[37].wlan[0].radio transmissionState:vector ETV
attr interpolationmode sample-hold
attr source transmissionStateChanged
attr title "Radio transmission state, vector"
vector 226 FanetSybilNormale.host[38].wlan[0].radio receptionState:vector ETV
attr interpolationmode sample-hold
attr source receptionStateChanged
attr title "Radio reception state, vector"
vector 227 FanetSybilNormale.host[38].wlan[0].radio transmissionState:vector ETV
attr interpolationmode sample-hold
attr source transmissionStateChanged
attr title "Radio transmission state, vector"
vector 228 FanetSybilNormale.host[39].wlan[0].radio receptionState:vector ETV
attr interpolationmode sample-hold
attr source receptionStateChanged
attr title "Radio reception state, vector"
vector 229 FanetSybilNormale.host[39].wlan[0].radio transmissionState:vector ETV
attr interpolationmode sample-hold
attr source transmissionStateChanged
attr title "Radio transmission state, vector"
vector 230 FanetSybilNormale.host[40].wlan[0].radio receptionState:vector ETV
attr interpolationmode sample-hold
attr source receptionStateChanged
attr title "Radio reception state, vector"
vector 231 FanetSybilNormale.host[40].wlan[0].radio transmissionState:vector ETV
attr interpolationmode sample-hold
attr source transmissionStateChanged
attr title "Radio transmission state, vector"
vector 232 FanetSybilNormale.host[41].wlan[0].radio receptionState:vector ETV
attr interpolationmode sample-hold
attr source receptionStateChanged
attr title "Radio reception state, vector"
vector 233 FanetSybilNormale.host[41].wlan[0].radio transmissionState:vector ETV
attr interpolationmode sample-hold
attr source transmissionStateChanged
attr title "Radio transmission state, vector"
vector 234 FanetSybilNormale.host[42].wlan[0].radio receptionState:vector ETV
attr interpolationmode sample-hold
attr source receptionStateChanged
attr title "Radio reception state, vector"
vector 235 FanetSybilNormale.host[42].wlan[0].radio transmissionState:vector ETV
attr interpolationmode sample-hold
attr source transmissionStateChanged
attr title "Radio transmission state, vector"
vector 236 FanetSybilNormale.host[43].wlan[0].radio receptionState:vector ETV
attr interpolationmode sample-hold
attr source receptionStateChanged
attr title "Radio reception state, vector"
vector 237 FanetSybilNormale.host[43].wlan[0].radio transmissionState:vector ETV
attr interpolationmode sample-hold
attr source transmissionStateChanged
attr title "Radio transmission state, vector"
vector 238 FanetSybilNormale.host[44].wlan[0].radio receptionState:vector ETV
attr interpolationmode sample-hold
attr source receptionStateChanged
attr title "Radio reception state, vector"
vector 239 FanetSybilNormale.host[44].wlan[0].radio transmissionState:vector ETV
attr interpolationmode sample-hold
attr source transmissionStateChanged
attr title "Radio transmission state, vector"
vector 240 FanetSybilNormale.host[45].wlan[0].radio receptionState:vector ETV
attr interpolationmode sample-hold
attr source receptionStateChanged
attr title "Radio reception state, vector"
vector 241 FanetSybilNormale.host[45].wlan[0].radio transmissionState:vector ETV
attr interpolationmode sample-hold
attr source transmissionStateChanged
attr title "Radio transmission state, vector"
vector 242 FanetSybilNormale.host[46].wlan[0].radio receptionState:vector ETV
attr interpolationmode sample-hold
attr source receptionStateChanged
attr title "Radio reception state, vector"
vector 243 FanetSybilNormale.host[46].wlan[0].radio transmissionState:vector ETV
attr interpolationmode sample-hold
attr source transmissionStateChanged
attr title "Radio transmission state, vector"
vector 244 FanetSybilNormale.host[47].wlan[0].radio receptionState:vector ETV
attr interpolationmode sample-hold
attr source receptionStateChanged
attr title "Radio reception state, vector"
vector 245 FanetSybilNormale.host[47].wlan[0].radio transmissionState:vector ETV
attr interpolationmode sample-hold
attr source transmissionStateChanged
attr title "Radio transmission state, vector"
vector 246 FanetSybilNormale.host[48].wlan[0].radio receptionState:vector ETV
attr interpolationmode sample-hold
attr source receptionStateChanged
attr title "Radio reception state, vector"
vector 247 FanetSybilNormale.host[48].wlan[0].radio transmissionState:vector ETV
attr interpolationmode sample-hold
attr source transmissionStateChanged
attr title "Radio transmission state, vector"
vector 248 FanetSybilNormale.host[49].wlan[0].radio receptionState:vector ETV
attr interpolationmode sample-hold
attr source receptionStateChanged
attr title "Radio reception state, vector"
vector 249 FanetSybilNormale.host[49].wlan[0].radio transmissionState:vector ETV
attr interpolationmode sample-hold
attr source transmissionStateChanged
attr title "Radio transmission state, vector"
vector 250 FanetSybilNormale.host[32].wlan[0].mac rcvdPkFromHl:vector(packetBytes) ETV
attr interpolationmode none
attr source packetReceivedFromUpper
attr title "packets received from higher layer, vector(packetBytes)"
vector 251 FanetSybilNormale.host[32].wlan[0].mac.queue packetPushed:vector(packetBytes) ETV
attr interpolationmode none
attr title "packet pushed, vector(packetBytes)"
vector 252 FanetSybilNormale.host[32].wlan[0].mac.queue queueLength:vector ETV
attr interpolationmode sample-hold
attr source "count(packetPushed) - count(packetPopped) - count(packetRemoved) - count(packetDropped)"
attr title "queue length, vector"
vector 253 FanetSybilNormale.host[32].wlan[0].mac.queue packetPopped:vector(packetBytes) ETV
attr interpolationmode none
attr title "packet popped, vector(packetBytes)"
vector 254 FanetSybilNormale.host[32].wlan[0].mac.queue queueingTime:vector ETV
attr interpolationmode none
attr source queueingTime(packetPopped)
attr title "queueing times, vector"
attr unit s
vector 255 FanetSybilNormale.host[32].wlan[0].mac sentDownPk:vector(packetBytes) ETV
attr interpolationmode none
attr source packetSentToLower
attr title "packets sent to lower layer, vector(packetBytes)"
vector 256 FanetSybilNormale.host[32].energyStorage residualEnergyCapacity:vector ETV
attr interpolationmode linear
attr source residualEnergyCapacityChanged
attr title "Residual energy capacity, vector"
vector 257 FanetSybilNormale.host[15].energyStorage residualEnergyCapacity:vector ETV
attr interpolationmode linear
attr source residualEnergyCapacityChanged
attr title "Residual energy capacity, vector"
vector 258 FanetSybilNormale.host[1].energyStorage residualEnergyCapacity:vector ETV
attr interpolationmode linear
attr source residualEnergyCapacityChanged
attr title "Residual energy capacity, vector"
vector 259 FanetSybilNormale.host[26].energyStorage residualEnergyCapacity:vector ETV
attr interpolationmode linear
attr source residualEnergyCapacityChanged
attr title "Residual energy capacity, vector"
vector 260 FanetSybilNormale.host[41].energyStorage residualEnergyCapacity:vector ETV
attr interpolationmode linear
attr source residualEnergyCapacityChanged
attr title "Residual energy capacity, vector"
vector 261 FanetSybilNormale.host[47].energyStorage residualEnergyCapacity:vector ETV
attr interpolationmode linear
attr source residualEnergyCapacityChanged
attr title "Residual energy capacity, vector"
vector 262 FanetSybilNormale.host[42].energyStorage residualEnergyCapacity:vector ETV
attr interpolationmode linear
attr source residualEnergyCapacityChanged
attr title "Residual energy capacity, vector"
vector 263 FanetSybilNormale.host[20].energyStorage residualEnergyCapacity:vector ETV
attr interpolationmode linear
attr source residualEnergyCapacityChanged
attr title "Residual energy capacity, vector"
vector 264 FanetSybilNormale.host[15].wlan[0].mac rcvdPkFromLl:vector(packetBytes) ETV
attr interpolationmode none
attr source packetReceivedFromLower
attr title "packets received from lower layer, vector(packetBytes)"
vector 265 FanetSybilNormale.host[15].wlan[0].mac passedUpPk:vector(packetBytes) ETV
attr interpolationmode none
attr source packetSentToUpper
attr title "packets passed to higher layer, vector(packetBytes)"
vector 266 FanetSybilNormale.host[1].wlan[0].mac rcvdPkFromLl:vector(packetBytes) ETV
attr interpolationmode none
attr source packetReceivedFromLower
attr title "packets received from lower layer, vector(packetBytes)"
vector 267 FanetSybilNormale.host[1].wlan[0].mac passedUpPk:vector(packetBytes) ETV
attr interpolationmode none
attr source packetSentToUpper
attr title "packets passed to higher layer, vector(packetBytes)"
vector 268 FanetSybilNormale.host[26].wlan[0].mac rcvdPkFromLl:vector(packetBytes) ETV
attr interpolationmode none
attr source packetReceivedFromLower
attr title "packets received from lower layer, vector(packetBytes)"
vector 269 FanetSybilNormale.host[26].wlan[0].mac passedUpPk:vector(packetBytes) ETV
attr interpolationmode none
attr source packetSentToUpper
attr title "packets passed to higher layer, vector(packetBytes)"
vector 270 FanetSybilNormale.host[41].wlan[0].mac rcvdPkFromLl:vector(packetBytes) ETV
attr interpolationmode none
attr source packetReceivedFromLower
attr title "packets received from lower layer, vector(packetBytes)"
vector 271 FanetSybilNormale.host[41].wlan[0].mac passedUpPk:vector(packetBytes) ETV
attr interpolationmode none
attr source packetSentToUpper
attr title "packets passed to higher layer, vector(packetBytes)"
vector 272 FanetSybilNormale.host[47].wlan[0].mac rcvdPkFromLl:vector(packetBytes) ETV
attr interpolationmode none
attr source packetReceivedFromLower
attr title "packets received from lower layer, vector(packetBytes)"
vector 273 FanetSybilNormale.host[47].wlan[0].mac passedUpPk:vector(packetBytes) ETV
attr interpolationmode none
attr source packetSentToUpper
attr title "packets passed to higher layer, vector(packetBytes)"
vector 274 FanetSybilNormale.host[42].wlan[0].mac rcvdPkFromLl:vector(packetBytes) ETV
attr interpolationmode none
attr source packetReceivedFromLower
attr title "packets received from lower layer, vector(packetBytes)"
vector 275 FanetSybilNormale.host[42].wlan[0].mac passedUpPk:vector(packetBytes) ETV
attr interpolationmode none
attr source packetSentToUpper
attr title "packets passed to higher layer, vector(packetBytes)"
vector 276 FanetSybilNormale.host[20].wlan[0].mac rcvdPkFromLl:vector(packetBytes) ETV
attr interpolationmode none
attr source packetReceivedFromLower
attr title "packets received from lower layer, vector(packetBytes)"
vector 277 FanetSybilNormale.host[20].wlan[0].mac passedUpPk:vector(packetBytes) ETV
attr interpolationmode none
attr source packetSentToUpper
attr title "packets passed to higher layer, vector(packetBytes)"
vector 278 FanetSybilNormale.host[15].wlan[0].mac rcvdPkFromHl:vector(packetBytes) ETV
attr interpolationmode none
attr source packetReceivedFromUpper
attr title "packets received from higher layer, vector(packetBytes)"
vector 279 FanetSybilNormale.host[15].wlan[0].mac.queue packetPushed:vector(packetBytes) ETV
attr interpolationmode none
attr title "packet pushed, vector(packetBytes)"
vector 280 FanetSybilNormale.host[15].wlan[0].mac.queue queueLength:vector ETV
attr interpolationmode sample-hold
attr source "count(packetPushed) - count(packetPopped) - count(packetRemoved) - count(packetDropped)"
attr title "queue length, vector"
vector 281 FanetSybilNormale.host[15].wlan[0].mac.queue packetPopped:vector(packetBytes) ETV
attr interpolationmode none
attr title "packet popped, vector(packetBytes)"
vector 282 FanetSybilNormale.host[15].wlan[0].mac.queue queueingTime:vector ETV
attr interpolationmode none
attr source queueingTime(packetPopped)
attr title "queueing times, vector"
attr unit s
vector 283 FanetSybilNormale.host[15].wlan[0].mac sentDownPk:vector(packetBytes) ETV
attr interpolationmode none
attr source packetSentToLower
attr title "packets sent to lower layer, vector(packetBytes)"
vector 284 FanetSybilNormale.host[39].energyStorage residualEnergyCapacity:vector ETV
attr interpolationmode linear
attr source residualEnergyCapacityChanged
attr title "Residual energy capacity, vector"
vector 285 FanetSybilNormale.host[32].wlan[0].mac rcvdPkFromLl:vector(packetBytes) ETV
attr interpolationmode none
attr source packetReceivedFromLower
attr title "packets received from lower layer, vector(packetBytes)"
vector 286 FanetSybilNormale.host[32].wlan[0].mac passedUpPk:vector(packetBytes) ETV
attr interpolationmode none
attr source packetSentToUpper
attr title "packets passed to higher layer, vector(packetBytes)"
vector 287 FanetSybilNormale.host[39].wlan[0].mac rcvdPkFromLl:vector(packetBytes) ETV
attr interpolationmode none
attr source packetReceivedFromLower
attr title "packets received from lower layer, vector(packetBytes)"
vector 288 FanetSybilNormale.host[39].wlan[0].mac passedUpPk:vector(packetBytes) ETV
attr interpolationmode none
attr source packetSentToUpper
attr title "packets passed to higher layer, vector(packetBytes)"
vector 289 FanetSybilNormale.host[28].wlan[0].mac rcvdPkFromHl:vector(packetBytes) ETV
attr interpolationmode none
attr source packetReceivedFromUpper
attr title "packets received from higher layer, vector(packetBytes)"
vector 290 FanetSybilNormale.host[28].wlan[0].mac.queue packetPushed:vector(packetBytes) ETV
attr interpolationmode none
attr title "packet pushed, vector(packetBytes)"
vector 291 FanetSybilNormale.host[28].wlan[0].mac.queue queueLength:vector ETV
attr interpolationmode sample-hold
attr source "count(packetPushed) - count(packetPopped) - count(packetRemoved) - count(packetDropped)"
attr title "queue length, vector"
vector 292 FanetSybilNormale.host[28].wlan[0].mac.queue packetPopped:vector(packetBytes) ETV
attr interpolationmode none
attr title "packet popped, vector(packetBytes)"
vector 293 FanetSybilNormale.host[28].wlan[0].mac.queue queueingTime:vector ETV
attr interpolationmode none
attr source queueingTime(packetPopped)
attr title "queueing times, vector"
attr unit s
vector 294 FanetSybilNormale.host[28].wlan[0].mac sentDownPk:vector(packetBytes) ETV
attr interpolationmode none
attr source packetSentToLower
attr title "packets sent to lower layer, vector(packetBytes)"
vector 295 FanetSybilNormale.host[28].energyStorage residualEnergyCapacity:vector ETV
attr interpolationmode linear
attr source residualEnergyCapacityChanged
attr title "Residual energy capacity, vector"
vector 296 FanetSybilNormale.host[11].energyStorage residualEnergyCapacity:vector ETV
attr interpolationmode linear
attr source residualEnergyCapacityChanged
attr title "Residual energy capacity, vector"
vector 297 FanetSybilNormale.host[38].energyStorage residualEnergyCapacity:vector ETV
attr interpolationmode linear
attr source residualEnergyCapacityChanged
attr title "Residual energy capacity, vector"
vector 298 FanetSybilNormale.host[25].energyStorage residualEnergyCapacity:vector ETV
attr interpolationmode linear
attr source residualEnergyCapacityChanged
attr title "Residual energy capacity, vector"
vector 299 FanetSybilNormale.host[29].energyStorage residualEnergyCapacity:vector ETV
attr interpolationmode linear
attr source residualEnergyCapacityChanged
attr title "Residual energy capacity, vector"
vector 300 FanetSybilNormale.host[37].energyStorage residualEnergyCapacity:vector ETV
attr interpolationmode linear
attr source residualEnergyCapacityChanged
attr title "Residual energy capacity, vector"
vector 301 FanetSybilNormale.host[4].energyStorage residualEnergyCapacity:vector ETV
attr interpolationmode linear
attr source residualEnergyCapacityChanged
attr title "Residual energy capacity, vector"
vector 302 FanetSybilNormale.host[49].energyStorage residualEnergyCapacity:vector ETV
attr interpolationmode linear
attr source residualEnergyCapacityChanged
attr title "Residual energy capacity, vector"
vector 303 FanetSybilNormale.host[19].energyStorage residualEnergyCapacity:vector ETV
attr interpolationmode linear
attr source residualEnergyCapacityChanged
attr title "Residual energy capacity, vector"
vector 304 FanetSybilNormale.host[14].energyStorage residualEnergyCapacity:vector ETV
attr interpolationmode linear
attr source residualEnergyCapacityChanged
attr title "Residual energy capacity, vector"
vector 305 FanetSybilNormale.host[11].wlan[0].mac rcvdPkFromLl:vector(packetBytes) ETV
attr interpolationmode none
attr source packetReceivedFromLower
attr title "packets received from lower layer, vector(packetBytes)"
vector 306 FanetSybilNormale.host[11].wlan[0].mac passedUpPk:vector(packetBytes) ETV
attr interpolationmode none
attr source packetSentToUpper
attr title "packets passed to higher layer, vector(packetBytes)"
vector 307 FanetSybilNormale.host[38].wlan[0].mac rcvdPkFromLl:vector(packetBytes) ETV
attr interpolationmode none
attr source packetReceivedFromLower
attr title "packets received from lower layer, vector(packetBytes)"
vector 308 FanetSybilNormale.host[38].wlan[0].mac passedUpPk:vector(packetBytes) ETV
attr interpolationmode none
attr source packetSentToUpper
attr title "packets passed to higher layer, vector(packetBytes)"
vector 309 FanetSybilNormale.host[25].wlan[0].mac rcvdPkFromLl:vector(packetBytes) ETV
attr interpolationmode none
attr source packetReceivedFromLower
attr title "packets received from lower layer, vector(packetBytes)"
vector 310 FanetSybilNormale.host[25].wlan[0].mac passedUpPk:vector(packetBytes) ETV
attr interpolationmode none
attr source packetSentToUpper
attr title "packets passed to higher layer, vector(packetBytes)"
vector 311 FanetSybilNormale.host[29].wlan[0].mac rcvdPkFromLl:vector(packetBytes) ETV
attr interpolationmode none
attr source packetReceivedFromLower
attr title "packets received from lower layer, vector(packetBytes)"
vector 312 FanetSybilNormale.host[29].wlan[0].mac passedUpPk:vector(packetBytes) ETV
attr interpolationmode none
attr source packetSentToUpper
attr title "packets passed to higher layer, vector(packetBytes)"
vector 313 FanetSybilNormale.host[37].wlan[0].mac rcvdPkFromLl:vector(packetBytes) ETV
attr interpolationmode none
attr source packetReceivedFromLower
attr title "packets received from lower layer, vector(packetBytes)"
vector 314 FanetSybilNormale.host[37].wlan[0].mac passedUpPk:vector(packetBytes) ETV
attr interpolationmode none
attr source packetSentToUpper
attr title "packets passed to higher layer, vector(packetBytes)"
vector 315 FanetSybilNormale.host[4].wlan[0].mac rcvdPkFromLl:vector(packetBytes) ETV
attr interpolationmode none
attr source packetReceivedFromLower
attr title "packets received from lower layer, vector(packetBytes)"
vector 316 FanetSybilNormale.host[4].wlan[0].mac passedUpPk:vector(packetBytes) ETV
attr interpolationmode none
attr source packetSentToUpper
attr title "packets passed to higher layer, vector(packetBytes)"
vector 317 FanetSybilNormale.host[49].wlan[0].mac rcvdPkFromLl:vector(packetBytes) ETV
attr interpolationmode none
attr source packetReceivedFromLower
attr title "packets received from lower layer, vector(packetBytes)"
vector 318 FanetSybilNormale.host[49].wlan[0].mac passedUpPk:vector(packetBytes) ETV
attr interpolationmode none
attr source packetSentToUpper
attr title "packets passed to higher layer, vector(packetBytes)"
vector 319 FanetSybilNormale.host[19].wlan[0].mac rcvdPkFromLl:vector(packetBytes) ETV
attr interpolationmode none
attr source packetReceivedFromLower
attr title "packets received from lower layer, vector(packetBytes)"
vector 320 FanetSybilNormale.host[19].wlan[0].mac passedUpPk:vector(packetBytes) ETV
attr interpolationmode none
attr source packetSentToUpper
attr title "packets passed to higher layer, vector(packetBytes)"
vector 321 FanetSybilNormale.host[14].wlan[0].mac rcvdPkFromLl:vector(packetBytes) ETV
attr interpolationmode none
attr source packetReceivedFromLower
attr title "packets received from lower layer, vector(packetBytes)"
vector 322 FanetSybilNormale.host[14].wlan[0].mac passedUpPk:vector(packetBytes) ETV
attr interpolationmode none
attr source packetSentToUpper
attr title "packets passed to higher layer, vector(packetBytes)"
vector 323 FanetSybilNormale.host[30].wlan[0].mac rcvdPkFromHl:vector(packetBytes) ETV
attr interpolationmode none
attr source packetReceivedFromUpper
attr title "packets received from higher layer, vector(packetBytes)"
vector 324 FanetSybilNormale.host[30].wlan[0].mac.queue packetPushed:vector(packetBytes) ETV
attr interpolationmode none
attr title "packet pushed, vector(packetBytes)"
vector 325 FanetSybilNormale.host[30].wlan[0].mac.queue queueLength:vector ETV
attr interpolationmode sample-hold
attr source "count(packetPushed) - count(packetPopped) - count(packetRemoved) - count(packetDropped)"
attr title "queue length, vector"
vector 326 FanetSybilNormale.host[30].wlan[0].mac.queue packetPopped:vector(packetBytes) ETV
attr interpolationmode none
attr title "packet popped, vector(packetBytes)"
vector 327 FanetSybilNormale.host[30].wlan[0].mac.queue queueingTime:vector ETV
attr interpolationmode none
attr source queueingTime(packetPopped)
attr title "queueing times, vector"
attr unit s
vector 328 FanetSybilNormale.host[30].wlan[0].mac sentDownPk:vector(packetBytes) ETV
attr interpolationmode none
attr source packetSentToLower
attr title "packets sent to lower layer, vector(packetBytes)"
vector 329 FanetSybilNormale.host[30].energyStorage residualEnergyCapacity:vector ETV
attr interpolationmode linear
attr source residualEnergyCapacityChanged
attr title "Residual energy capacity, vector"
vector 330 FanetSybilNormale.host[40].energyStorage residualEnergyCapacity:vector ETV
attr interpolationmode linear
attr source residualEnergyCapacityChanged
attr title "Residual energy capacity, vector"
vector 331 FanetSybilNormale.host[16].energyStorage residualEnergyCapacity:vector ETV
attr interpolationmode linear
attr source residualEnergyCapacityChanged
attr title "Residual energy capacity, vector"
vector 332 FanetSybilNormale.host[23].energyStorage residualEnergyCapacity:vector ETV
attr interpolationmode linear
attr source residualEnergyCapacityChanged
attr title "Residual energy capacity, vector"
vector 333 FanetSybilNormale.host[18].energyStorage residualEnergyCapacity:vector ETV
attr interpolationmode linear
attr source residualEnergyCapacityChanged
attr title "Residual energy capacity, vector"
vector 334 FanetSybilNormale.host[35].energyStorage residualEnergyCapacity:vector ETV
attr interpolationmode linear
attr source residualEnergyCapacityChanged
attr title "Residual energy capacity, vector"
vector 335 FanetSybilNormale.host[33].energyStorage residualEnergyCapacity:vector ETV
attr interpolationmode linear
attr source residualEnergyCapacityChanged
attr title "Residual energy capacity, vector"
vector 336 FanetSybilNormale.host[48].energyStorage residualEnergyCapacity:vector ETV
attr interpolationmode linear
attr source residualEnergyCapacityChanged
attr title "Residual energy capacity, vector"
vector 337 FanetSybilNormale.host[21].energyStorage residualEnergyCapacity:vector ETV
attr interpolationmode linear
attr source residualEnergyCapacityChanged
attr title "Residual energy capacity, vector"
vector 338 FanetSybilNormale.host[46].energyStorage residualEnergyCapacity:vector ETV
attr interpolationmode linear
attr source residualEnergyCapacityChanged
attr title "Residual energy capacity, vector"
vector 339 FanetSybilNormale.host[40].wlan[0].mac rcvdPkFromLl:vector(packetBytes) ETV
attr interpolationmode none
attr source packetReceivedFromLower
attr title "packets received from lower layer, vector(packetBytes)"
vector 340 FanetSybilNormale.host[40].wlan[0].mac passedUpPk:vector(packetBytes) ETV
attr interpolationmode none
attr source packetSentToUpper
attr title "packets passed to higher layer, vector(packetBytes)"
vector 341 FanetSybilNormale.host[16].wlan[0].mac rcvdPkFromLl:vector(packetBytes) ETV
attr interpolationmode none
attr source packetReceivedFromLower
attr title "packets received from lower layer, vector(packetBytes)"
vector 342 FanetSybilNormale.host[16].wlan[0].mac passedUpPk:vector(packetBytes) ETV
attr interpolationmode none
attr source packetSentToUpper
attr title "packets passed to higher layer, vector(packetBytes)"
vector 343 FanetSybilNormale.host[23].wlan[0].mac rcvdPkFromLl:vector(packetBytes) ETV
attr interpolationmode none
attr source packetReceivedFromLower
attr title "packets received from lower layer, vector(packetBytes)"
vector 344 FanetSybilNormale.host[23].wlan[0].mac passedUpPk:vector(packetBytes) ETV
attr interpolationmode none
attr source packetSentToUpper
attr title "packets passed to higher layer, vector(packetBytes)"
vector 345 FanetSybilNormale.host[18].wlan[0].mac rcvdPkFromLl:vector(packetBytes) ETV
attr interpolationmode none
attr source packetReceivedFromLower
attr title "packets received from lower layer, vector(packetBytes)"
vector 346 FanetSybilNormale.host[18].wlan[0].mac passedUpPk:vector(packetBytes) ETV
attr interpolationmode none
attr source packetSentToUpper
attr title "packets passed to higher layer, vector(packetBytes)"
vector 347 FanetSybilNormale.host[35].wlan[0].mac rcvdPkFromLl:vector(packetBytes) ETV
attr interpolationmode none
attr source packetReceivedFromLower
attr title "packets received from lower layer, vector(packetBytes)"
vector 348 FanetSybilNormale.host[35].wlan[0].mac passedUpPk:vector(packetBytes) ETV
attr interpolationmode none
attr source packetSentToUpper
attr title "packets passed to higher layer, vector(packetBytes)"
vector 349 FanetSybilNormale.host[33].wlan[0].mac rcvdPkFromLl:vector(packetBytes) ETV
attr interpolationmode none
attr source packetReceivedFromLower
attr title "packets received from lower layer, vector(packetBytes)"
vector 350 FanetSybilNormale.host[33].wlan[0].mac passedUpPk:vector(packetBytes) ETV
attr interpolationmode none
attr source packetSentToUpper
attr title "packets passed to higher layer, vector(packetBytes)"
vector 351 FanetSybilNormale.host[48].wlan[0].mac rcvdPkFromLl:vector(packetBytes) ETV
attr interpolationmode none
attr source packetReceivedFromLower
attr title "packets received from lower layer, vector(packetBytes)"
vector 352 FanetSybilNormale.host[48].wlan[0].mac passedUpPk:vector(packetBytes) ETV
attr interpolationmode none
attr source packetSentToUpper
attr title "packets passed to higher layer, vector(packetBytes)"
vector 353 FanetSybilNormale.host[21].wlan[0].mac rcvdPkFromLl:vector(packetBytes) ETV
attr interpolationmode none
attr source packetReceivedFromLower
attr title "packets received from lower layer, vector(packetBytes)"
vector 354 FanetSybilNormale.host[21].wlan[0].mac passedUpPk:vector(packetBytes) ETV
attr interpolationmode none
attr source packetSentToUpper
attr title "packets passed to higher layer, vector(packetBytes)"
vector 355 FanetSybilNormale.host[46].wlan[0].mac rcvdPkFromLl:vector(packetBytes) ETV
attr interpolationmode none
attr source packetReceivedFromLower
attr title "packets received from lower layer, vector(packetBytes)"
vector 356 FanetSybilNormale.host[46].wlan[0].mac passedUpPk:vector(packetBytes) ETV
attr interpolationmode none
attr source packetSentToUpper
attr title "packets passed to higher layer, vector(packetBytes)"
vector 357 FanetSybilNormale.host[48].wlan[0].mac rcvdPkFromHl:vector(packetBytes) ETV
attr interpolationmode none
attr source packetReceivedFromUpper
attr title "packets received from higher layer, vector(packetBytes)"
vector 358 FanetSybilNormale.host[48].wlan[0].mac.queue packetPushed:vector(packetBytes) ETV
attr interpolationmode none
attr title "packet pushed, vector(packetBytes)"
vector 359 FanetSybilNormale.host[48].wlan[0].mac.queue queueLength:vector ETV
attr interpolationmode sample-hold
attr source "count(packetPushed) - count(packetPopped) - count(packetRemoved) - count(packetDropped)"
attr title "queue length, vector"
vector 360 FanetSybilNormale.host[48].wlan[0].mac.queue packetPopped:vector(packetBytes) ETV
attr interpolationmode none
attr title "packet popped, vector(packetBytes)"
vector 361 FanetSybilNormale.host[48].wlan[0].mac.queue queueingTime:vector ETV
attr interpolationmode none
attr source queueingTime(packetPopped)
attr title "queueing times, vector"
attr unit s
vector 362 FanetSybilNormale.host[48].wlan[0].mac sentDownPk:vector(packetBytes) ETV
attr interpolationmode none
attr source packetSentToLower
attr title "packets sent to lower layer, vector(packetBytes)"
vector 363 FanetSybilNormale.host[9].energyStorage residualEnergyCapacity:vector ETV
attr interpolationmode linear
attr source residualEnergyCapacityChanged
attr title "Residual energy capacity, vector"
vector 364 FanetSybilNormale.host[36].energyStorage residualEnergyCapacity:vector ETV
attr interpolationmode linear
attr source residualEnergyCapacityChanged
attr title "Residual energy capacity, vector"
vector 365 FanetSybilNormale.host[13].energyStorage residualEnergyCapacity:vector ETV
attr interpolationmode linear
attr source residualEnergyCapacityChanged
attr title "Residual energy capacity, vector"
vector 366 FanetSybilNormale.host[31].energyStorage residualEnergyCapacity:vector ETV
attr interpolationmode linear
attr source residualEnergyCapacityChanged
attr title "Residual energy capacity, vector"
vector 367 FanetSybilNormale.host[2].energyStorage residualEnergyCapacity:vector ETV
attr interpolationmode linear
attr source residualEnergyCapacityChanged
attr title "Residual energy capacity, vector"
vector 368 FanetSybilNormale.host[7].energyStorage residualEnergyCapacity:vector ETV
attr interpolationmode linear
attr source residualEnergyCapacityChanged
attr title "Residual energy capacity, vector"
vector 369 FanetSybilNormale.host[0].energyStorage residualEnergyCapacity:vector ETV
attr interpolationmode linear
attr source residualEnergyCapacityChanged
attr title "Residual energy capacity, vector"
vector 370 FanetSybilNormale.host[3].energyStorage residualEnergyCapacity:vector ETV
attr interpolationmode linear
attr source residualEnergyCapacityChanged
attr title "Residual energy capacity, vector"
vector 371 FanetSybilNormale.host[9].wlan[0].mac rcvdPkFromLl:vector(packetBytes) ETV
attr interpolationmode none
attr source packetReceivedFromLower
attr title "packets received from lower layer, vector(packetBytes)"
vector 372 FanetSybilNormale.host[9].wlan[0].mac passedUpPk:vector(packetBytes) ETV
attr interpolationmode none
attr source packetSentToUpper
attr title "packets passed to higher layer, vector(packetBytes)"
vector 373 FanetSybilNormale.host[36].wlan[0].mac rcvdPkFromLl:vector(packetBytes) ETV
attr interpolationmode none
attr source packetReceivedFromLower
attr title "packets received from lower layer, vector(packetBytes)"
vector 374 FanetSybilNormale.host[36].wlan[0].mac passedUpPk:vector(packetBytes) ETV
attr interpolationmode none
attr source packetSentToUpper
attr title "packets passed to higher layer, vector(packetBytes)"
vector 375 FanetSybilNormale.host[13].wlan[0].mac rcvdPkFromLl:vector(packetBytes) ETV
attr interpolationmode none
attr source packetReceivedFromLower
attr title "packets received from lower layer, vector(packetBytes)"
vector 376 FanetSybilNormale.host[13].wlan[0].mac passedUpPk:vector(packetBytes) ETV
attr interpolationmode none
attr source packetSentToUpper
attr title "packets passed to higher layer, vector(packetBytes)"
vector 377 FanetSybilNormale.host[31].wlan[0].mac rcvdPkFromLl:vector(packetBytes) ETV
attr interpolationmode none
attr source packetReceivedFromLower
attr title "packets received from lower layer, vector(packetBytes)"
vector 378 FanetSybilNormale.host[31].wlan[0].mac passedUpPk:vector(packetBytes) ETV
attr interpolationmode none
attr source packetSentToUpper
attr title "packets passed to higher layer, vector(packetBytes)"
vector 379 FanetSybilNormale.host[30].wlan[0].mac rcvdPkFromLl:vector(packetBytes) ETV
attr interpolationmode none
attr source packetReceivedFromLower
attr title "packets received from lower layer, vector(packetBytes)"
vector 380 FanetSybilNormale.host[30].wlan[0].mac passedUpPk:vector(packetBytes) ETV
attr interpolationmode none
attr source packetSentToUpper
attr title "packets passed to higher layer, vector(packetBytes)"
vector 381 FanetSybilNormale.host[2].wlan[0].mac rcvdPkFromLl:vector(packetBytes) ETV
attr interpolationmode none
attr source packetReceivedFromLower
[...]
522	41445733 288 1154067 1290571 795.214965678753 890.352019015701 9 56 56 504 28224
523	41446021 2178 1148647 1302989 791.66638388428 899.428499030627 65 40 1092 59408 64410656
524	41448199 2178 1148647 1302989 791.66638388428 899.428499030627 65 40 1092 59408 64410656
525	41450377 4010 1148647 1302989 791.66638388428 899.428499030627 130 0 1 65 65
526	41454387 2178 1148647 1302989 791.66638388428 899.428499030627 65 40 1092 59408 64410656
527	41456565 2005 1148647 1302989 791.66638388428 899.428499030627 65 0 0 0 0
528	41458570 2178 1148647 1302989 791.66638388428 899.428499030627 65 56 1108 60448 66328352
529	41460748 33757 1143542 1303471 787.291259270889 899.628862570744 721 -0.12002598410966 -0.099265236181256 -78.921229062895 8.6654915859329
530	41494505 3978 1144923 1302924 788.986654899025 899.428124882364 118 40 1092 118336 128802112
531	41498483 3978 1144923 1302924 788.986654899025 899.428124882364 118 40 1092 118336 128802112
532	41502461 7286 1144923 1302924 788.986654899025 899.428124882364 236 0 1 118 118
533	41509747 3976 1144923 1302924 788.986654899025 899.428124882364 118 40 1092 118336 128802112
534	41513723 3680 1144923 1302924 788.986654899025 899.428124882364 118 0 0.074466611878 0.131746050849 0.0075751009303354
535	41517403 3976 1144923 1302924 788.986654899025 899.428124882364 118 56 1108 120224 132619072
536	41521379 384 1151840 1294565 793.640998783522 893.282557642089 12 40 40 480 19200
537	41521763 384 1151840 1294565 793.640998783522 893.282557642089 12 40 40 480 19200
538	41522147 744 1151840 1294565 793.640998783522 893.282557642089 24 0 1 12 12
539	41522891 384 1151840 1294565 793.640998783522 893.282557642089 12 40 40 480 19200
540	41523275 372 1151840 1294565 793.640998783522 893.282557642089 12 0 0 0 0
541	41523647 384 1151840 1294565 793.640998783522 893.282557642089 12 56 56 672 37632
542	41524031 382 1150639 1303437 793.294534385202 899.628861017989 12 40 40 480 19200
543	41524413 382 1150639 1303437 793.294534385202 899.628861017989 12 40 40 480 19200
544	41524795 740 1150639 1303437 793.294534385202 899.628861017989 24 0 1 12 12
545	41525535 382 1150639 1303437 793.294534385202 899.628861017989 12 40 40 480 19200
546	41525917 370 1150639 1303437 793.294534385202 899.628861017989 12 0 0 0 0
547	41526287 382 1150639 1303437 793.294534385202 899.628861017989 12 56 56 672 37632
548	41526669 352 1150847 1288306 793.321891347876 889.197808732277 11 40 40 440 17600
549	41527021 352 1150847 1288306 793.321891347876 889.197808732277 11 40 40 440 17600
550	41527373 682 1150847 1288306 793.321891347876 889.197808732277 22 0 1 11 11
551	41528055 352 1150847 1288306 793.321891347876 889.197808732277 11 40 40 440 17600
552	41528407 341 1150847 1288306 793.321891347876 889.197808732277 11 0 0 0 0
553	41528748 352 1150847 1288306 793.321891347876 889.197808732277 11 56 56 616 34496
554	41529100 351 1149406 1289407 792.257976357359 889.734235804062 11 40 40 440 17600
555	41529451 351 1149406 1289407 792.257976357359 889.734235804062 11 40 40 440 17600
556	41529802 680 1149406 1289407 792.257976357359 889.734235804062 22 0 1 11 11
557	41530482 351 1149406 1289407 792.257976357359 889.734235804062 11 40 40 440 17600
558	41530833 340 1149406 1289407 792.257976357359 889.734235804062 11 0 0 0 0
559	41531173 351 1149406 1289407 792.257976357359 889.734235804062 11 56 56 616 34496
560	41531524 383 1144045 1302304 787.791141932827 899.233609826766 12 40 40 480 19200
561	41531907 383 1144045 1302304 787.791141932827 899.233609826766 12 40 40 480 19200
562	41532290 742 1144045 1302304 787.791141932827 899.233609826766 24 0 1 12 12
563	41533032 383 1144045 1302304 787.791141932827 899.233609826766 12 40 40 480 19200
564	41533415 371 1144045 1302304 787.791141932827 899.233609826766 12 0 0 0 0
565	41533786 383 1144045 1302304 787.791141932827 899.233609826766 12 56 56 672 37632
566	41534169 380 1147898 1301649 790.842382838017 898.77462297678 12 40 40 480 19200
567	41534549 380 1147898 1301649 790.842382838017 898.77462297678 12 40 40 480 19200
568	41534929 736 1147898 1301649 790.842382838017 898.77462297678 24 0 1 12 12
569	41535665 380 1147898 1301649 790.842382838017 898.77462297678 12 40 40 480 19200
570	41536045 368 1147898 1301649 790.842382838017 898.77462297678 12 0 0 0 0
571	41536413 380 1147898 1301649 790.842382838017 898.77462297678 12 56 56 672 37632
572	41536793 285 1157894 1296500 797.854988293259 895.001393072309 9 40 40 360 14400
573	41537078 285 1157894 1296500 797.854988293259 895.001393072309 9 40 40 360 14400
574	41537363 552 1157894 1296500 797.854988293259 895.001393072309 18 0 1 9 9
575	41537915 285 1157894 1296500 797.854988293259 895.001393072309 9 40 40 360 14400
576	41538200 276 1157894 1296500 797.854988293259 895.001393072309 9 0 0 0 0
577	41538476 285 1157894 1296500 797.854988293259 895.001393072309 9 56 56 504 28224
578	41538761 412 1158570 1297844 798.36187252309 895.823861709795 13 40 40 520 20800
579	41539173 412 1158570 1297844 798.36187252309 895.823861709795 13 40 40 520 20800
580	41539585 798 1158570 1297844 798.36187252309 895.823861709795 26 0 1 13 13
581	41540383 412 1158570 1297844 798.36187252309 895.823861709795 13 40 40 520 20800
582	41540795 399 1158570 1297844 798.36187252309 895.823861709795 13 0 0 0 0
583	41541194 412 1158570 1297844 798.36187252309 895.823861709795 13 56 56 728 40768
584	41541606 384 1146230 1294097 789.810043175241 892.849400346171 12 40 40 480 19200
585	41541990 384 1146230 1294097 789.810043175241 892.849400346171 12 40 40 480 19200
586	41542374 744 1146230 1294097 789.810043175241 892.849400346171 24 0 1 12 12
587	41543118 384 1146230 1294097 789.810043175241 892.849400346171 12 40 40 480 19200
588	41543502 372 1146230 1294097 789.810043175241 892.849400346171 12 0 0 0 0
589	41543874 384 1146230 1294097 789.810043175241 892.849400346171 12 56 56 672 37632
590	41544258 758 1145910 1295447 789.551923754623 894.119960467795 23 40 1092 13544 14327168
591	41545016 758 1145910 1295447 789.551923754623 894.119960467795 23 40 1092 13544 14327168
592	41545774 1422 1145910 1295447 789.551923754623 894.119960467795 46 0 1 23 23
593	41547196 758 1145910 1295447 789.551923754623 894.119960467795 23 40 1092 13544 14327168
594	41547954 711 1145910 1295447 789.551923754623 894.119960467795 23 0 0 0 0
595	41548665 758 1145910 1295447 789.551923754623 894.119960467795 23 56 1108 13912 14766464
596	41549423 318 1144373 1286075 788.185357442125 887.954913543072 10 40 40 400 16000
597	41549741 318 1144373 1286075 788.185357442125 887.954913543072 10 40 40 400 16000
598	41550059 616 1144373 1286075 788.185357442125 887.954913543072 20 0 1 10 10
599	41550675 318 1144373 1286075 788.185357442125 887.954913543072 10 40 40 400 16000
600	41550993 308 1144373 1286075 788.185357442125 887.954913543072 10 0 0 0 0
601	41551301 318 1144373 1286075 788.185357442125 887.954913543072 10 56 56 560 31360
602	41551619 351 1155857 1299303 796.622055063491 897.095056427643 11 40 40 440 17600
603	41551970 351 1155857 1299303 796.622055063491 897.095056427643 11 40 40 440 17600
604	41552321 680 1155857 1299303 796.622055063491 897.095056427643 22 0 1 11 11
605	41553001 351 1155857 1299303 796.622055063491 897.095056427643 11 40 40 440 17600
606	41553352 340 1155857 1299303 796.622055063491 897.095056427643 11 0 0 0 0
607	41553692 351 1155857 1299303 796.622055063491 897.095056427643 11 56 56 616 34496
608	41554043 8535 1143623 1303332 787.291281937556 899.562677417154 261 56 1108 128232 133067520
609	41562578 6705 1143623 1303332 787.291281937556 899.562677417154 207 40 1092 65088 64637856
610	41569283 350 1153014 1298975 794.541631366588 896.651827255259 11 40 40 440 17600
611	41569633 350 1153014 1298975 794.541631366588 896.651827255259 11 40 40 440 17600
612	41569983 678 1153014 1298975 794.541631366588 896.651827255259 22 0 1 11 11
613	41570661 350 1153014 1298975 794.541631366588 896.651827255259 11 40 40 440 17600
614	41571011 339 1153014 1298975 794.541631366588 896.651827255259 11 0 0 0 0
615	41571350 350 1153014 1298975 794.541631366588 896.651827255259 11 56 56 616 34496
616	41571700 350 1153332 1302675 794.638704007958 899.255622185303 11 40 40 440 17600
617	41572050 350 1153332 1302675 794.638704007958 899.255622185303 11 40 40 440 17600
618	41572400 678 1153332 1302675 794.638704007958 899.255622185303 22 0 1 11 11
619	41573078 350 1153332 1302675 794.638704007958 899.255622185303 11 40 40 440 17600
620	41573428 339 1153332 1302675 794.638704007958 899.255622185303 11 0 0 0 0
621	41573767 350 1153332 1302675 794.638704007958 899.255622185303 11 56 56 616 34496
622	41574117 287 1153859 1284462 795.175461200992 886.665908251883 9 40 40 360 14400
623	41574404 287 1153859 1284462 795.175461200992 886.665908251883 9 40 40 360 14400
624	41574691 556 1153859 1284462 795.175461200992 886.665908251883 18 0 1 9 9
625	41575247 287 1153859 1284462 795.175461200992 886.665908251883 9 40 40 360 14400
626	41575534 278 1153859 1284462 795.175461200992 886.665908251883 9 0 0 0 0
627	41575812 287 1153859 1284462 795.175461200992 886.665908251883 9 56 56 504 28224
628	41576099 350 1163827 1301836 801.773382395044 898.839322347196 11 40 40 440 17600
629	41576449 350 1163827 1301836 801.773382395044 898.839322347196 11 40 40 440 17600
630	41576799 678 1163827 1301836 801.773382395044 898.839322347196 22 0 1 11 11
631	41577477 350 1163827 1301836 801.773382395044 898.839322347196 11 40 40 440 17600
632	41577827 339 1163827 1301836 801.773382395044 898.839322347196 11 0 0 0 0
633	41578166 350 1163827 1301836 801.773382395044 898.839322347196 11 56 56 616 34496
634	41578516 350 1147193 1293855 790.625288023145 892.654487199613 11 40 40 440 17600
635	41578866 350 1147193 1293855 790.625288023145 892.654487199613 11 40 40 440 17600
636	41579216 678 1147193 1293855 790.625288023145 892.654487199613 22 0 1 11 11
637	41579894 350 1147193 1293855 790.625288023145 892.654487199613 11 40 40 440 17600
638	41580244 339 1147193 1293855 790.625288023145 892.654487199613 11 0 0 0 0
639	41580583 350 1147193 1293855 790.625288023145 892.654487199613 11 56 56 616 34496
640	41580933 351 1149764 1297265 792.603216455317 895.553790002595 11 40 40 440 17600
641	41581284 351 1149764 1297265 792.603216455317 895.553790002595 11 40 40 440 17600
642	41581635 680 1149764 1297265 792.603216455317 895.553790002595 22 0 1 11 11
643	41582315 351 1149764 1297265 792.603216455317 895.553790002595 11 40 40 440 17600
644	41582666 340 1149764 1297265 792.603216455317 895.553790002595 11 0 0 0 0
645	41583006 351 1149764 1297265 792.603216455317 895.553790002595 11 56 56 616 34496
646	41583357 352 1148332 1295245 791.430960511786 894.023649317677 11 40 40 440 17600
647	41583709 352 1148332 1295245 791.430960511786 894.023649317677 11 40 40 440 17600
648	41584061 682 1148332 1295245 791.430960511786 894.023649317677 22 0 1 11 11
649	41584743 352 1148332 1295245 791.430960511786 894.023649317677 11 40 40 440 17600
650	41585095 341 1148332 1295245 791.430960511786 894.023649317677 11 0 0 0 0
651	41585436 352 1148332 1295245 791.430960511786 894.023649317677 11 56 56 616 34496
652	41585788 411 1143530 1296012 787.291258312762 894.3176315655 13 40 40 520 20800
653	41586199 411 1143530 1296012 787.291258312762 894.3176315655 13 40 40 520 20800
654	41586610 796 1143530 1296012 787.291258312762 894.3176315655 26 0 1 13 13
655	41587406 411 1143530 1296012 787.291258312762 894.3176315655 13 40 40 520 20800
656	41587817 398 1143530 1296012 787.291258312762 894.3176315655 13 0 0 0 0
657	41588215 411 1143530 1296012 787.291258312762 894.3176315655 13 56 56 728 40768
658	41588626 383 1143393 1302070 787.270242294762 899.000514480285 12 40 40 480 19200
659	41589009 383 1143393 1302070 787.270242294762 899.000514480285 12 40 40 480 19200
660	41589392 742 1143393 1302070 787.270242294762 899.000514480285 24 0 1 12 12
661	41590134 383 1143393 1302070 787.270242294762 899.000514480285 12 40 40 480 19200
662	41590517 371 1143393 1302070 787.270242294762 899.000514480285 12 0 0 0 0
663	41590888 383 1143393 1302070 787.270242294762 899.000514480285 12 56 56 672 37632
664	41591271 349 1149898 1294849 792.673271542878 893.58959909761 11 40 40 440 17600
665	41591620 349 1149898 1294849 792.673271542878 893.58959909761 11 40 40 440 17600
666	41591969 676 1149898 1294849 792.673271542878 893.58959909761 22 0 1 11 11
667	41592645 349 1149898 1294849 792.673271542878 893.58959909761 11 40 40 440 17600
668	41592994 338 1149898 1294849 792.673271542878 893.58959909761 11 0 0 0 0
669	41593332 349 1149898 1294849 792.673271542878 893.58959909761 11 56 56 616 34496
670	41593681 288 1148961 1294307 791.973892562093 893.032267130913 9 40 40 360 14400
671	41593969 288 1148961 1294307 791.973892562093 893.032267130913 9 40 40 360 14400
672	41594257 558 1148961 1294307 791.973892562093 893.032267130913 18 0 1 9 9
673	41594815 288 1148961 1294307 791.973892562093 893.032267130913 9 40 40 360 14400
674	41595103 279 1148961 1294307 791.973892562093 893.032267130913 9 0 0 0 0
675	41595382 288 1148961 1294307 791.973892562093 893.032267130913 9 56 56 504 28224
676	41595670 351 1146440 1290401 790.002431117465 890.314422121738 11 40 40 440 17600
677	41596021 351 1146440 1290401 790.002431117465 890.314422121738 11 40 40 440 17600
678	41596372 680 1146440 1290401 790.002431117465 890.314422121738 22 0 1 11 11
679	41597052 351 1146440 1290401 790.002431117465 890.314422121738 11 40 40 440 17600
680	41597403 340 1146440 1290401 790.002431117465 890.314422121738 11 0 0 0 0
681	41597743 351 1146440 1290401 790.002431117465 890.314422121738 11 56 56 616 34496
682	41598094 416 1145266 1297119 789.126077706457 895.541065644936 13 40 40 520 20800
683	41598510 416 1145266 1297119 789.126077706457 895.541065644936 13 40 40 520 20800
684	41598926 806 1145266 1297119 789.126077706457 895.541065644936 26 0 1 13 13
685	41599732 416 1145266 1297119 789.126077706457 895.541065644936 13 40 40 520 20800
686	41600148 403 1145266 1297119 789.126077706457 895.541065644936 13 0 0 0 0
687	41600551 416 1145266 1297119 789.126077706457 895.541065644936 13 56 56 728 40768
688	41600967 381 1146982 1299496 790.5858144816 897.157976075539 12 40 40 480 19200
689	41601348 381 1146982 1299496 790.5858144816 897.157976075539 12 40 40 480 19200
690	41601729 738 1146982 1299496 790.5858144816 897.157976075539 24 0 1 12 12
691	41602467 381 1146982 1299496 790.5858144816 897.157976075539 12 40 40 480 19200
692	41602848 369 1146982 1299496 790.5858144816 897.157976075539 12 0 0 0 0
693	41603217 381 1146982 1299496 790.5858144816 897.157976075539 12 56 56 672 37632
694	41603598 384 1145571 1295846 789.465877211188 894.307692975272 12 40 40 480 19200
695	41603982 384 1145571 1295846 789.465877211188 894.307692975272 12 40 40 480 19200
696	41604366 744 1145571 1295846 789.465877211188 894.307692975272 24 0 1 12 12
697	41605110 384 1145571 1295846 789.465877211188 894.307692975272 12 40 40 480 19200
698	41605494 372 1145571 1295846 789.465877211188 894.307692975272 12 0 0 0 0
699	41605866 384 1145571 1295846 789.465877211188 894.307692975272 12 56 56 672 37632
700	41606250 3659 1144920 1302921 788.986654899025 899.428124882364 108 1024 1024 110592 113246208
701	41609909 3659 1144921 1302922 788.986654899025 899.428124882364 108 1032 1032 111456 115022592
702	41613568 3797 1144980 1303002 788.987028844524 899.428499148267 112 1108 1108 124096 137498368
703	41617365 5487 1144982 1303118 788.98702889014 899.428873215237 162 1108 1108 179496 198881568
704	41622852 1829 1148749 1303098 791.66675755991 899.428872918212 54 1108 1108 59832 66293856
705	41624681 1829 1145001 1302619 788.98702920019 899.250969417415 54 1108 1108 59832 66293856
706	41626510 1832 1148761 1303112 791.666758142733 899.428873177011 54 1108 1108 59832 66293856
707	41628342 2234 1145116 1303116 788.987403198067 899.428873213411 66 1108 1108 73128 81025824
708	41630576 5009 1144988 1303096 788.98702907939 899.428872888124 148 1108 1108 163984 181694272
710	41635585 1114 1145130 1302639 788.98740339973 899.250969809038 33 1108 1108 36564 40512912
711	41636699 1286 1145106 1302615 788.987402921179 899.250969363554 38 1108 1108 42104 46651232
712	41637985 1831 1148769 1303108 791.666758209294 899.428873089164 54 1108 1108 59832 66293856
713	41639816 2444 1145003 1303100 788.987029219908 899.428872935236 72 1108 1108 79776 88391808
714	41642260 3119 1145122 1303114 788.987403370997 899.428873178887 92 1108 1108 101936 112945088
715	41645379 1324 1148763 1267993 791.666758166072 875.652554902585 39 1108 1108 43212 47878896
716	41646703 5526 1144984 1303120 788.987028958132 899.428873255444 163 1108 1108 180604 200109232
717	41652229 1833 1148759 1303110 791.666758136965 899.428873115567 54 1108 1108 59832 66293856
718	41654062 712 1145118 1204312 788.987403278432 829.416476422722 21 1108 1108 23268 25780944
720	41654774 1286 1145114 1302633 788.987403188976 899.250969749503 38 1108 1108 42104 46651232
721	41656060 706 1145126 1204304 788.98740338905 829.41647637841 21 1108 1108 23268 25780944
722	41656766 4333 1148643 1302985 791.6663838819 899.428498972065 128 1108 1108 141824 157140992
723	41661099 1830 1144995 1302502 788.987029137391 899.250595431581 54 1108 1108 59832 66293856
724	41662929 1831 1148753 1303106 791.666757788038 899.428873078979 54 1108 1108 59832 66293856
725	41664760 1288 1145103 1302612 788.987402888432 899.25096927914 38 1032 1032 39216 40470912
726	41666048 1250 1145103 1302612 788.987402888432 899.25096927914 38 352 389 14079 5220839
727	41667298 1288 1145104 1302613 788.987402888432 899.25096927914 38 1024 1024 38912 39845888
728	41668586 22746 1145104 1303796 786 900 1141 0 81920 3194880 261724569600
729	41691332 1668 1145104 1302613 788.987402888432 899.25096927914 38 0.000747950726 0.000748049786 0.028423729904 2.1260748002297e-05
730	41693000 1250 1145104 1302613 788.987402888432 899.25096927914 38 769 875 31160 25603030
731	41694250 1322 1145112 1303122 788.987403146172 899.428873344222 39 1108 1108 43212 47878896
732	41695572 4953 1144997 1302994 788.987029157313 899.428499052779 146 1108 1108 161768 179238944
733	41700525 407 1178127 1204310 811.497981772457 829.416476408306 12 1108 1108 13296 14731968
734	41700932 711 1145124 1204302 788.987403372156 829.416476360987 21 1108 1108 23268 25780944
736	41701643 1833 1148746 1303093 791.666757416501 899.428872583886 54 1032 1032 55728 57511296
737	41703476 1779 1148746 1303093 791.666757416501 899.428872583886 54 310 363 18171 6127659
738	41705255 1833 1148747 1303094 791.666757416501 899.428872583886 54 1024 1024 55296 56623104
739	41707088 22786 1148747 1303796 786.1 900 1140 0 163840 4505600 395942297600
740	41729874 2358 1148747 1303094 791.666757416501 899.428872583886 54 0.000747701522 0.075214338022 0.157436391849 0.0075646392219369
741	41732232 1779 1148747 1303094 791.666757416501 899.428872583886 54 770 876 44510 36739772
752	41734011 1255 1144999 1201077 788.987029181124 827.20244874309 37 1108 1108 40996 45423568
753	41735266 6673 1144976 1303102 788.987028375778 899.428872981955 197 1108 1108 218276 241849808
754	41741939 404 1178137 1204316 811.497981847102 829.41647646024 12 1108 1108 13296 14731968
755	41742343 1286 1145108 1302623 788.9874030649 899.250969496143 38 1108 1108 42104 46651232
757	41743629 1290 1145095 1302621 788.987402757052 899.250969490209 38 1108 1108 42104 46651232
758	41744919 407 1178131 1204314 811.497981787238 829.41647642443 12 1108 1108 13296 14731968
759	41745326 2334 1236972 1303000 854.280092731816 899.428499110333 69 1108 1108 76452 84708816
761	41747660 6472 1144978 1303104 788.987028510648 899.4288730236 191 1108 1108 211628 234483824
762	41754132 4942 1144986 1302992 788.987029068441 899.42849904103 146 1108 1108 161768 179238944
763	41759074 980 1266740 1302998 874.73298429214 899.42849910842 29 1108 1108 32132 35602256
764	41760054 918 1268893 1302996 876.350151960083 899.428499063092 27 1108 1108 29916 33146928
765	41760972 177102 1303796 1303796 0.1 900 9000 0 0 0 0

